<?xml version="1.0" encoding="UTF-8"?>

<!-- generated on 2022-01-10 15:46:54 by Eclipse SUMO duarouter Version 1.11.0
<configuration xmlns:xsi="http://www.w3.org/2001/XMLSchema-instance" xsi:noNamespaceSchemaLocation="http://sumo.dlr.de/xsd/duarouterConfiguration.xsd">

    <input>
        <net-file value="C:\Users\Anton\Sumo\2022-01-10-15-46-39\osm.net.xml"/>
        <route-files value="C:\Users\Anton\Sumo\2022-01-10-15-46-39\osm.passenger.trips.xml"/>
    </input>

    <output>
        <output-file value="C:\Users\Anton\Sumo\2022-01-10-15-46-39\osm.passenger.trips.xml.tmp"/>
        <write-trips value="true"/>
    </output>

    <time>
        <begin value="0"/>
        <end value="3600"/>
    </time>

    <report>
        <no-warnings value="true"/>
        <ignore-errors value="true"/>
        <no-step-log value="true"/>
    </report>

</configuration>
-->

<routes xmlns:xsi="http://www.w3.org/2001/XMLSchema-instance" xsi:noNamespaceSchemaLocation="http://sumo.dlr.de/xsd/routes_file.xsd">
    <vType id="veh_passenger" vClass="passenger"/>
    <trip id="veh0" type="veh_passenger" depart="0.00" departLane="best" from="29408065#0" to="27107042"/>
    <trip id="veh2" type="veh_passenger" depart="25.77" departLane="best" from="-80152409" to="-11818113#1"/>
    <trip id="veh4" type="veh_passenger" depart="51.55" departLane="best" from="-11627689" to="-29317738#4"/>
    <trip id="veh5" type="veh_passenger" depart="64.44" departLane="best" from="23918493" to="17457033#1"/>
    <trip id="veh6" type="veh_passenger" depart="77.32" departLane="best" from="-27496690#0" to="19355403#4"/>
    <trip id="veh8" type="veh_passenger" depart="103.10" departLane="best" from="32252194" to="29317738#2"/>
    <trip id="veh9" type="veh_passenger" depart="115.98" departLane="best" from="-486972235#1" to="-24694092#1"/>
    <trip id="veh11" type="veh_passenger" depart="141.76" departLane="best" from="-15021023" to="-17384248"/>
    <trip id="veh12" type="veh_passenger" depart="154.65" departLane="best" from="391923088" to="23903578"/>
    <trip id="veh13" type="veh_passenger" depart="167.53" departLane="best" from="328178779" to="30185071"/>
    <trip id="veh15" type="veh_passenger" depart="193.31" departLane="best" from="390705309#1" to="23918490#1"/>
    <trip id="veh16" type="veh_passenger" depart="206.20" departLane="best" from="393505712#0" to="186632793#5"/>
    <trip id="veh17" type="veh_passenger" depart="219.08" departLane="best" from="26626390" to="-124977959#0"/>
    <trip id="veh18" type="veh_passenger" depart="231.97" departLane="best" from="-29084716#2" to="-411014865"/>
    <trip id="veh19" type="veh_passenger" depart="244.86" departLane="best" from="-15021019#1" to="-314492923"/>
    <trip id="veh20" type="veh_passenger" depart="257.74" departLane="best" from="-155467734" to="-391923087"/>
    <trip id="veh23" type="veh_passenger" depart="296.41" departLane="best" from="-317130966" to="770677236#0"/>
    <trip id="veh24" type="veh_passenger" depart="309.29" departLane="best" from="23918490#1" to="23918214"/>
    <trip id="veh25" type="veh_passenger" depart="322.18" departLane="best" from="-23918281#0" to="30185071"/>
    <trip id="veh27" type="veh_passenger" depart="347.95" departLane="best" from="95243726" to="24221021"/>
    <trip id="veh28" type="veh_passenger" depart="360.84" departLane="best" from="-29084716#2" to="-11818113#2"/>
    <trip id="veh29" type="veh_passenger" depart="373.73" departLane="best" departSpeed="max" from="-42992977#1" to="-35046089#1"/>
    <trip id="veh31" type="veh_passenger" depart="399.50" departLane="best" from="24219313" to="102809770#0"/>
    <trip id="veh33" type="veh_passenger" depart="425.28" departLane="best" from="-312590965" to="-31540126"/>
    <trip id="veh34" type="veh_passenger" depart="438.16" departLane="best" from="17384248" to="-34569965"/>
    <trip id="veh37" type="veh_passenger" depart="476.83" departLane="best" from="96311855#1" to="155542976"/>
    <trip id="veh38" type="veh_passenger" depart="489.71" departLane="best" departSpeed="max" from="-15021019#3" to="-124977959#0"/>
    <trip id="veh39" type="veh_passenger" depart="502.60" departLane="best" departSpeed="max" from="-155542976" to="24219313"/>
    <trip id="veh41" type="veh_passenger" depart="528.37" departLane="best" from="96306840#1" to="17384256"/>
    <trip id="veh44" type="veh_passenger" depart="567.04" departLane="best" departSpeed="max" from="24694123" to="17384256"/>
    <trip id="veh45" type="veh_passenger" depart="579.92" departLane="best" from="-317130966" to="24693823#0"/>
    <trip id="veh46" type="veh_passenger" depart="592.81" departLane="best" departSpeed="max" from="-155542976" to="11818113#3"/>
    <trip id="veh48" type="veh_passenger" depart="618.59" departLane="best" from="486972235#1" to="-34569965"/>
    <trip id="veh49" type="veh_passenger" depart="631.47" departLane="best" from="124977959#0" to="-26626390"/>
    <trip id="veh51" type="veh_passenger" depart="657.25" departLane="best" from="-393505712#1" to="24219491#4"/>
    <trip id="veh52" type="veh_passenger" depart="670.13" departLane="best" from="186632793#4" to="-24693823#1"/>
    <trip id="veh54" type="veh_passenger" depart="695.91" departLane="best" from="314292899" to="17384256"/>
    <trip id="veh57" type="veh_passenger" depart="734.57" departLane="best" from="549336711" to="420011938"/>
    <trip id="veh58" type="veh_passenger" depart="747.46" departLane="best" from="549336711" to="770677246"/>
    <trip id="veh59" type="veh_passenger" depart="760.34" departLane="best" from="-143183286" to="318209631#0"/>
    <trip id="veh61" type="veh_passenger" depart="786.12" departLane="best" from="115597416#0" to="17457033#4"/>
    <trip id="veh62" type="veh_passenger" depart="799.01" departLane="best" from="-312590965" to="549336711"/>
    <trip id="veh63" type="veh_passenger" depart="811.89" departLane="best" from="-83700852#1" to="-30182236"/>
    <trip id="veh64" type="veh_passenger" depart="824.78" departLane="best" from="15021023" to="30185071"/>
    <trip id="veh65" type="veh_passenger" depart="837.67" departLane="best" from="96306840#1" to="24701975#2"/>
    <trip id="veh66" type="veh_passenger" depart="850.55" departLane="best" departSpeed="max" from="-96306832#2" to="155542976"/>
    <trip id="veh69" type="veh_passenger" depart="889.22" departLane="best" from="-143183287" to="24219491#0"/>
    <trip id="veh70" type="veh_passenger" depart="902.10" departLane="best" from="-29084716#2" to="681503599"/>
    <trip id="veh71" type="veh_passenger" depart="914.99" departLane="best" from="393505712#0" to="-15021019#1"/>
    <trip id="veh72" type="veh_passenger" depart="927.88" departLane="best" departSpeed="max" from="80152409" to="186632793#3"/>
    <trip id="veh73" type="veh_passenger" depart="940.76" departLane="best" from="115597416#0" to="378330769#0"/>
    <trip id="veh74" type="veh_passenger" depart="953.65" departLane="best" from="328178779" to="-29084716#2"/>
    <trip id="veh75" type="veh_passenger" depart="966.54" departLane="best" from="-155467732#1" to="11818113#1"/>
    <trip id="veh76" type="veh_passenger" depart="979.43" departLane="best" from="-83700852#1" to="143183283#0"/>
    <trip id="veh78" type="veh_passenger" depart="1005.20" departLane="best" from="915205870#0" to="-17384249#0"/>
    <trip id="veh79" type="veh_passenger" depart="1018.09" departLane="best" from="393505712#0" to="-31540126"/>
    <trip id="veh80" type="veh_passenger" depart="1030.98" departLane="best" from="-80152409" to="-391923087"/>
    <trip id="veh82" type="veh_passenger" depart="1056.75" departLane="best" from="96311855#1" to="420011938"/>
    <trip id="veh83" type="veh_passenger" depart="1069.64" departLane="best" departSpeed="max" from="899238845" to="718174275#4"/>
    <trip id="veh84" type="veh_passenger" depart="1082.52" departLane="best" from="391923088" to="-24701975#1"/>
    <trip id="veh88" type="veh_passenger" depart="1134.07" departLane="best" from="-312590965" to="378330769#0"/>
    <trip id="veh90" type="veh_passenger" depart="1159.85" departLane="best" from="84658163" to="96306840#1"/>
    <trip id="veh93" type="veh_passenger" depart="1198.51" departLane="best" from="-124977959#1" to="19355403#1"/>
    <trip id="veh94" type="veh_passenger" depart="1211.40" departLane="best" from="124977959#1" to="42992977#1"/>
    <trip id="veh95" type="veh_passenger" depart="1224.28" departLane="best" from="-15021019#1" to="-284588825"/>
    <trip id="veh98" type="veh_passenger" depart="1262.94" departLane="best" from="186522910" to="23918490#1"/>
    <trip id="veh99" type="veh_passenger" depart="1275.83" departLane="best" from="-80152409" to="19355403#1"/>
    <trip id="veh100" type="veh_passenger" depart="1288.72" departLane="best" from="143183286" to="72147000#1"/>
    <trip id="veh101" type="veh_passenger" depart="1301.61" departLane="best" from="-24701975#1" to="30182079#0"/>
    <trip id="veh102" type="veh_passenger" depart="1314.49" departLane="best" from="-29408064" to="102809770#0"/>
    <trip id="veh104" type="veh_passenger" depart="1340.27" departLane="best" from="-143183287" to="13215492#0"/>
    <trip id="veh105" type="veh_passenger" depart="1353.15" departLane="best" from="96311855#1" to="96306840#1"/>
    <trip id="veh106" type="veh_passenger" depart="1366.04" departLane="best" from="-143183287" to="-30185071"/>
    <trip id="veh109" type="veh_passenger" depart="1404.70" departLane="best" from="390709999" to="29408063#1"/>
    <trip id="veh110" type="veh_passenger" depart="1417.59" departLane="best" from="186632793#4" to="96306832#2"/>
    <trip id="veh113" type="veh_passenger" depart="1456.25" departLane="best" from="24219491#2" to="770677236#1"/>
    <trip id="veh114" type="veh_passenger" depart="1469.14" departLane="best" departSpeed="max" from="-17384256" to="-186632793#5"/>
    <trip id="veh115" type="veh_passenger" depart="1482.03" departLane="best" departSpeed="max" from="-155542976" to="186198379"/>
    <trip id="veh116" type="veh_passenger" depart="1494.91" departLane="best" from="-318209631#2" to="23903578"/>
    <trip id="veh117" type="veh_passenger" depart="1507.80" departLane="best" from="284588825" to="-29408065#1"/>
    <trip id="veh119" type="veh_passenger" depart="1533.58" departLane="best" from="391923088" to="-16893609"/>
    <trip id="veh120" type="veh_passenger" depart="1546.46" departLane="best" from="23918214" to="-345607727"/>
    <trip id="veh121" type="veh_passenger" depart="1559.35" departLane="best" from="29408065#2" to="186198379"/>
    <trip id="veh124" type="veh_passenger" depart="1598.01" departLane="best" from="390709999" to="19355403#0"/>
    <trip id="veh126" type="veh_passenger" depart="1623.79" departLane="best" departSpeed="max" from="31540126" to="46191489#0"/>
    <trip id="veh128" type="veh_passenger" depart="1649.56" departLane="best" from="-30182236" to="-186632793#0"/>
    <trip id="veh131" type="veh_passenger" depart="1688.22" departLane="best" from="345607727" to="61383017#1"/>
    <trip id="veh132" type="veh_passenger" depart="1701.11" departLane="best" from="-11627689" to="30341883#3"/>
    <trip id="veh134" type="veh_passenger" depart="1726.88" departLane="best" departSpeed="max" from="314492923" to="-186632793#2"/>
    <trip id="veh135" type="veh_passenger" depart="1739.77" departLane="best" from="46191510#0" to="46191489#0"/>
    <trip id="veh137" type="veh_passenger" depart="1765.55" departLane="best" departSpeed="max" from="31540126" to="-314492923"/>
    <trip id="veh138" type="veh_passenger" depart="1778.43" departLane="best" from="-11627689" to="-29317738#0"/>
    <trip id="veh139" type="veh_passenger" depart="1791.32" departLane="best" departSpeed="max" from="-42992977#1" to="46191510#0"/>
    <trip id="veh141" type="veh_passenger" depart="1817.09" departLane="best" from="23918356" to="102809770#1"/>
    <trip id="veh142" type="veh_passenger" depart="1829.98" departLane="best" from="915205870#0" to="17384256"/>
    <trip id="veh143" type="veh_passenger" depart="1842.87" departLane="best" departSpeed="max" from="80152409" to="-186632793#5"/>
    <trip id="veh146" type="veh_passenger" depart="1881.53" departLane="best" departSpeed="max" from="-155542976" to="11818113#3"/>
    <trip id="veh148" type="veh_passenger" depart="1907.30" departLane="best" from="186632793#3" to="155542976"/>
    <trip id="veh152" type="veh_passenger" depart="1958.85" departLane="best" from="15021023" to="30182236"/>
    <trip id="veh153" type="veh_passenger" depart="1971.74" departLane="best" from="29408065#3" to="25838159#1"/>
    <trip id="veh156" type="veh_passenger" depart="2010.40" departLane="best" from="289841086" to="-46191496#0"/>
    <trip id="veh159" type="veh_passenger" depart="2049.06" departLane="best" departSpeed="max" from="80152409" to="27107042"/>
    <trip id="veh160" type="veh_passenger" depart="2061.95" departLane="best" departSpeed="max" from="-399282763" to="17457033#3"/>
    <trip id="veh161" type="veh_passenger" depart="2074.84" departLane="best" from="-102809770#0" to="-411014865"/>
    <trip id="veh163" type="veh_passenger" depart="2100.61" departLane="best" from="24218438#1" to="143183283#0"/>
    <trip id="veh165" type="veh_passenger" depart="2126.39" departLane="best" from="115597416#0" to="681503599"/>
    <trip id="veh166" type="veh_passenger" depart="2139.27" departLane="best" departSpeed="max" from="31540126" to="-24702000#1"/>
    <trip id="veh167" type="veh_passenger" depart="2152.16" departLane="best" departSpeed="max" from="-15021019#3" to="155542976"/>
    <trip id="veh168" type="veh_passenger" depart="2165.05" departLane="best" from="23389873" to="-718174275#1"/>
    <trip id="veh170" type="veh_passenger" depart="2190.82" departLane="best" from="-24693823#1" to="-11627689"/>
    <trip id="veh171" type="veh_passenger" depart="2203.71" departLane="best" from="-29408065#3" to="143183286"/>
    <trip id="veh173" type="veh_passenger" depart="2229.48" departLane="best" from="-24218438#1" to="29317738#1"/>
    <trip id="veh174" type="veh_passenger" depart="2242.37" departLane="best" from="118607906" to="-31540126"/>
    <trip id="veh176" type="veh_passenger" depart="2268.15" departLane="best" from="30185071" to="345607727"/>
    <trip id="veh179" type="veh_passenger" depart="2306.81" departLane="best" from="143183283#0" to="-124977959#2"/>
    <trip id="veh181" type="veh_passenger" depart="2332.58" departLane="best" from="186522910" to="770679467#1"/>
    <trip id="veh183" type="veh_passenger" depart="2358.36" departLane="best" from="289841086" to="155542976"/>
    <trip id="veh184" type="veh_passenger" depart="2371.24" departLane="best" from="390705309#1" to="17457033#3"/>
    <trip id="veh186" type="veh_passenger" depart="2397.02" departLane="best" from="115597416#0" to="-318209631#2"/>
    <trip id="veh187" type="veh_passenger" depart="2409.90" departLane="best" from="-297225622" to="24219491#4"/>
    <trip id="veh189" type="veh_passenger" depart="2435.68" departLane="best" from="-15021006" to="-393505712#1"/>
    <trip id="veh191" type="veh_passenger" depart="2461.45" departLane="best" departSpeed="max" from="15021030" to="-23918356"/>
    <trip id="veh192" type="veh_passenger" depart="2474.34" departLane="best" from="27107042" to="-143183287"/>
    <trip id="veh194" type="veh_passenger" depart="2500.11" departLane="best" from="17457033#3" to="29317738#1"/>
    <trip id="veh195" type="veh_passenger" depart="2513.00" departLane="best" from="392719989" to="32252194"/>
    <trip id="veh200" type="veh_passenger" depart="2577.44" departLane="best" departSpeed="max" from="15021030" to="23903578"/>
    <trip id="veh202" type="veh_passenger" depart="2603.21" departLane="best" departSpeed="max" from="-96306832#2" to="-11818113#1"/>
    <trip id="veh206" type="veh_passenger" depart="2654.76" departLane="best" from="-770677236#4" to="186632793#0"/>
    <trip id="veh207" type="veh_passenger" depart="2667.65" departLane="best" from="-11627689" to="24693823#1"/>
    <trip id="veh208" type="veh_passenger" depart="2680.54" departLane="best" departSpeed="max" from="-17384256" to="13215492#2"/>
    <trip id="veh215" type="veh_passenger" depart="2770.75" departLane="best" departSpeed="max" from="83687789" to="-29317738#4"/>
    <trip id="veh217" type="veh_passenger" depart="2796.52" departLane="best" departSpeed="max" from="-155542976" to="-11627689"/>
    <trip id="veh218" type="veh_passenger" depart="2809.41" departLane="best" from="84658163" to="102809770#1"/>
    <trip id="veh219" type="veh_passenger" depart="2822.29" departLane="best" from="24702000#1" to="24219313"/>
    <trip id="veh220" type="veh_passenger" depart="2835.18" departLane="best" departSpeed="max" from="-155542976" to="345607727"/>
    <trip id="veh223" type="veh_passenger" depart="2873.84" departLane="best" departSpeed="max" from="314492923" to="-770677243"/>
    <trip id="veh224" type="veh_passenger" depart="2886.73" departLane="best" from="-96294232" to="-85220995#0"/>
    <trip id="veh225" type="veh_passenger" depart="2899.62" departLane="best" from="124977959#3" to="-770677236#1"/>
    <trip id="veh226" type="veh_passenger" depart="2912.50" departLane="best" from="391923088" to="399282763"/>
    <trip id="veh227" type="veh_passenger" depart="2925.39" departLane="best" departSpeed="max" from="-155542976" to="83687773"/>
    <trip id="veh229" type="veh_passenger" depart="2951.17" departLane="best" from="29408063#1" to="83700852#1"/>
    <trip id="veh230" type="veh_passenger" depart="2964.05" departLane="best" from="-318209631#1" to="391923088"/>
    <trip id="veh231" type="veh_passenger" depart="2976.94" departLane="best" from="-318209631#0" to="42992977#1"/>
    <trip id="veh232" type="veh_passenger" depart="2989.83" departLane="best" from="390705309#1" to="-155467732#1"/>
    <trip id="veh233" type="veh_passenger" depart="3002.72" departLane="best" from="56139355#0" to="-31540126"/>
    <trip id="veh237" type="veh_passenger" depart="3054.26" departLane="best" from="-486972235#1" to="61383017#0"/>
    <trip id="veh238" type="veh_passenger" depart="3067.15" departLane="best" from="24716580#2" to="-390705309#1"/>
    <trip id="veh239" type="veh_passenger" depart="3080.04" departLane="best" departSpeed="max" from="-102809770#1" to="770679467#0"/>
    <trip id="veh240" type="veh_passenger" depart="3092.93" departLane="best" departSpeed="max" from="-15021019#3" to="30182236"/>
    <trip id="veh241" type="veh_passenger" depart="3105.81" departLane="best" from="118607895" to="317130966"/>
    <trip id="veh243" type="veh_passenger" depart="3131.59" departLane="best" from="24715906#1" to="-46191510#1"/>
    <trip id="veh244" type="veh_passenger" depart="3144.47" departLane="best" from="17457033#2" to="143183286"/>
    <trip id="veh246" type="veh_passenger" depart="3170.25" departLane="best" from="30182079#0" to="-697574936#1"/>
    <trip id="veh249" type="veh_passenger" depart="3208.91" departLane="best" from="15021019#1" to="318209631#1"/>
    <trip id="veh251" type="veh_passenger" depart="3234.68" departLane="best" from="11818113#2" to="30182236"/>
    <trip id="veh253" type="veh_passenger" depart="3260.46" departLane="best" from="-369855809" to="-186198379"/>
    <trip id="veh254" type="veh_passenger" depart="3273.35" departLane="best" from="-24218438#1" to="-314492923"/>
    <trip id="veh256" type="veh_passenger" depart="3299.12" departLane="best" from="15021019#0" to="-390705309#0"/>
    <trip id="veh258" type="veh_passenger" depart="3324.90" departLane="best" from="24716580#0" to="-23918281#0"/>
    <trip id="veh259" type="veh_passenger" depart="3337.78" departLane="best" from="486972235#0" to="186632793#4"/>
    <trip id="veh261" type="veh_passenger" depart="3363.56" departLane="best" from="369711987" to="102809770#1"/>
    <trip id="veh263" type="veh_passenger" depart="3389.33" departLane="best" from="-12273115" to="-24219312"/>
    <trip id="veh264" type="veh_passenger" depart="3402.22" departLane="best" from="17384249#0" to="-46191510#1"/>
    <trip id="veh267" type="veh_passenger" depart="3440.88" departLane="best" departSpeed="max" from="31540126" to="-312590965"/>
    <trip id="veh268" type="veh_passenger" depart="3453.77" departLane="best" from="143183286" to="124977959#0"/>
    <trip id="veh271" type="veh_passenger" depart="3492.43" departLane="best" from="29408065#2" to="770679467#0"/>
    <trip id="veh272" type="veh_passenger" depart="3505.32" departLane="best" from="-24702000#1" to="-30182236"/>
    <trip id="veh273" type="veh_passenger" depart="3518.20" departLane="best" from="24219491#1" to="-24694123"/>
    <trip id="veh274" type="veh_passenger" depart="3531.09" departLane="best" from="-23918286#1" to="-15021030"/>
    <trip id="veh275" type="veh_passenger" depart="3543.98" departLane="best" departSpeed="max" from="-102809770#1" to="124977959#0"/>
    <trip id="veh276" type="veh_passenger" depart="3556.86" departLane="best" from="-29317738#1" to="29408065#0"/>
    <trip id="veh279" type="veh_passenger" depart="3595.53" departLane="best" departSpeed="max" from="314492923" to="23918493"/>
</routes>
