<?xml version="1.0" encoding="UTF-8"?>

<!-- generated on 2022-01-10 15:46:52 by Eclipse SUMO polyconvert Version 1.11.0
<configuration xmlns:xsi="http://www.w3.org/2001/XMLSchema-instance" xsi:noNamespaceSchemaLocation="http://sumo.dlr.de/xsd/polyconvertConfiguration.xsd">

    <input>
        <net-file value="osm.net.xml"/>
        <osm-files value="osm_bbox.osm.xml"/>
        <osm.keep-full-type value="true"/>
        <type-file value="C:\Program%20Files%20(x86)\Eclipse\Sumo\data\typemap\osmPolyconvert.typ.xml"/>
    </input>

    <output>
        <output-file value="osm.poly.xml"/>
    </output>

    <processing>
        <poi-layer-offset value="5"/>
    </processing>

    <report>
        <verbose value="true"/>
    </report>

</configuration>
-->

<additional xmlns:xsi="http://www.w3.org/2001/XMLSchema-instance" xsi:noNamespaceSchemaLocation="http://sumo.dlr.de/xsd/additional_file.xsd">
    <location netOffset="-593621.33,-5895826.17" convBoundary="-333.19,-0.00,3145.49,6100.35" origBoundary="10.398125,53.203132,10.450112,53.258128" projParameter="+proj=utm +zone=32 +ellps=WGS84 +datum=WGS84 +units=m +no_defs"/>

    <poly id="106684818" type="building.public" color="255,230,230" fill="1" layer="-1.00" shape="891.249953,5292.946951 891.366586,5280.997735 910.771072,5281.193087 910.826767,5275.351963 905.928774,5275.310535 906.155937,5251.723568 920.042071,5251.865238 919.816929,5274.673283 916.180292,5274.634589 916.121504,5280.631444 918.643775,5280.659179 918.521618,5293.220330 891.249953,5292.946951"/>
    <poly id="112070381" type="building.yes" color="255,230,230" fill="1" layer="-1.00" shape="823.284408,5016.348571 827.778233,5016.927178 838.545727,5018.197544 841.253966,5001.425573 833.456814,5000.481088 825.173272,4999.493602 823.284408,5016.348571"/>
    <poly id="112070383" type="building.apartments" color="255,230,230" fill="1" layer="-1.00" shape="738.034466,5017.532548 724.733645,5010.036246 718.799302,5020.535026 732.106993,5028.020320 738.034466,5017.532548"/>
    <poly id="112070387" type="building.apartments" color="255,230,230" fill="1" layer="-1.00" shape="323.997984,4452.782570 337.673286,4454.253683 338.423645,4447.335718 339.215475,4440.006834 328.790921,4438.877928 328.040794,4445.784771 324.796901,4445.431569 323.997984,4452.782570"/>
    <poly id="112070389" type="building.yes" color="255,230,230" fill="1" layer="-1.00" shape="378.639339,4457.976142 399.723857,4460.138685 401.209902,4445.701568 380.132213,4443.528027 378.639339,4457.976142"/>
    <poly id="112070392" type="building.apartments" color="255,230,230" fill="1" layer="-1.00" shape="361.670458,4436.309485 362.770545,4426.549645 353.259030,4425.494311 352.675403,4430.724102 352.165854,4435.243161 361.670458,4436.309485"/>
    <poly id="112070396" type="building.apartments" color="255,230,230" fill="1" layer="-1.00" shape="470.315866,4574.813410 464.680216,4587.432710 485.629721,4596.748299 491.272090,4584.129155 470.315866,4574.813410"/>
    <poly id="112070398" type="building.yes" color="255,230,230" fill="1" layer="-1.00" shape="804.430280,5175.429029 812.823193,5176.607831 819.545263,5177.564390 822.430156,5157.257187 807.315110,5155.121818 804.430280,5175.429029"/>
    <poly id="112070400" type="building.detached" color="255,230,230" fill="1" layer="-1.00" shape="703.391235,5060.536068 692.213074,5050.333203 685.602932,5057.547018 696.781090,5067.749868 703.391235,5060.536068"/>
    <poly id="112070402" type="building.apartments" color="255,230,230" fill="1" layer="-1.00" shape="552.981453,4429.665943 564.327990,4432.783198 566.760044,4423.539318 556.029351,4420.334062 552.981453,4429.665943"/>
    <poly id="112070409" type="building.yes" color="255,230,230" fill="1" layer="-1.00" shape="769.123346,5143.727521 784.455153,5146.378947 789.125050,5119.508129 773.793158,5116.856689 769.123346,5143.727521"/>
    <poly id="112070410" type="building.apartments" color="255,230,230" fill="1" layer="-1.00" shape="741.973788,5010.377249 746.971278,4998.991976 732.955929,4992.861394 727.951575,5004.257673 741.973788,5010.377249"/>
    <poly id="112070412" type="building.apartments" color="255,230,230" fill="1" layer="-1.00" shape="546.251498,4454.081504 557.591307,4457.198612 564.327990,4432.783198 552.981453,4429.665943 546.251498,4454.081504"/>
    <poly id="112070416" type="building.yes" color="255,230,230" fill="1" layer="-1.00" shape="598.135870,4622.871790 610.391628,4622.512929 610.321398,4619.985481 609.924335,4606.968985 597.661646,4607.338840 598.036363,4619.798492 598.135870,4622.871790"/>
    <poly id="112070421" type="building.presbytery" color="255,230,230" fill="1" layer="-1.00" shape="588.835292,4668.958422 579.692868,4667.153204 578.165276,4674.879270 576.955082,4674.643943 566.821999,4672.641141 564.916587,4682.262642 585.402453,4686.294855 588.835292,4668.958422"/>
    <poly id="112070423" type="building.apartments" color="255,230,230" fill="1" layer="-1.00" shape="353.259030,4425.494311 362.770545,4426.549645 363.094642,4423.651621 369.688560,4424.393554 370.391799,4418.175729 365.050150,4417.569743 354.279886,4416.367205 353.793419,4420.730926 353.259030,4425.494311"/>
    <poly id="112070429" type="building.apartments" color="255,230,230" fill="1" layer="-1.00" shape="750.325780,4991.035024 753.802899,4981.266630 742.144221,4977.130052 738.667124,4986.898455 750.325780,4991.035024"/>
    <poly id="112070432" type="building.apartments" color="255,230,230" fill="1" layer="-1.00" shape="362.481658,4465.614354 362.934088,4461.962155 360.296980,4461.643137 360.638682,4458.867868 348.851758,4457.433882 348.454372,4460.664302 348.064535,4463.850359 362.481658,4465.614354"/>
    <poly id="112070437" type="building.apartments" color="255,230,230" fill="1" layer="-1.00" shape="599.434212,4665.962862 611.696752,4665.593013 611.132175,4646.864533 598.869587,4647.234384 599.434212,4665.962862"/>
    <poly id="112070438" type="building.apartments" color="255,230,230" fill="1" layer="-1.00" shape="752.582305,5118.195230 773.248965,5081.959517 754.750094,5075.083588 732.815117,5110.659991 752.582305,5118.195230"/>
    <poly id="112070445" type="amenity.social_facility" color="237,199,199" fill="1" layer="-1.00" shape="638.959469,4663.794696 657.789386,4663.465701 657.406499,4641.969923 638.583170,4642.299052 638.774366,4653.230546 638.959469,4663.794696"/>
    <poly id="112070445#1" type="building.yes" color="255,230,230" fill="1" layer="-1.00" shape="638.959469,4663.794696 657.789386,4663.465701 657.406499,4641.969923 638.583170,4642.299052 638.774366,4653.230546 638.959469,4663.794696"/>
    <poly id="112070446" type="building.yes" color="255,230,230" fill="1" layer="-1.00" shape="823.008964,5152.294412 825.470030,5129.797723 816.998583,5128.873292 808.267376,5127.921478 805.806391,5150.418174 813.718481,5151.275873 823.008964,5152.294412"/>
    <poly id="112070450" type="building.school" color="255,230,230" fill="1" layer="-1.00" shape="639.698767,5026.683067 655.057070,5032.405923 663.723391,5009.297367 662.895342,5008.980544 668.651889,4993.626363 659.535105,4990.219042 653.017571,5007.605751 647.604451,5005.584755 639.698767,5026.683067"/>
    <poly id="112070454" type="building.apartments" color="255,230,230" fill="1" layer="-1.00" shape="350.829778,4447.157187 360.334359,4448.223508 361.670458,4436.309485 352.165854,4435.243161 351.502357,4441.139059 350.829778,4447.157187"/>
    <poly id="112070455" type="building.apartments" color="255,230,230" fill="1" layer="-1.00" shape="591.551496,4439.797183 603.653151,4444.899103 609.483162,4430.915046 597.454848,4424.801912 594.229094,4432.995200 591.551496,4439.797183"/>
    <poly id="112070458" type="building.yes" color="255,230,230" fill="1" layer="-1.00" shape="810.960288,5114.276168 817.700415,5114.999390 826.578202,5115.965251 828.603253,5097.287978 812.985279,5095.598889 810.960288,5114.276168"/>
    <poly id="112070459" type="building.apartments" color="255,230,230" fill="1" layer="-1.00" shape="720.324955,5041.263342 711.494168,5034.200451 705.465378,5041.715065 714.289708,5048.766690 720.324955,5041.263342"/>
    <poly id="112070464" type="building.yes" color="255,230,230" fill="1" layer="-1.00" shape="641.037111,4701.882453 654.592056,4704.676355 656.761225,4694.214367 646.211153,4692.036233 647.237075,4687.071151 644.238843,4686.455507 643.206251,4691.420458 641.037111,4701.882453"/>
    <poly id="112070469" type="building.yes" color="255,230,230" fill="1" layer="-1.00" shape="948.221337,5176.074265 964.847489,5173.354832 962.214246,5157.378372 959.486588,5140.776872 942.860327,5143.496325 948.221337,5176.074265"/>
    <poly id="112070475" type="building.office" color="255,230,230" fill="1" layer="-1.00" shape="476.385015,4564.584060 497.476900,4579.544407 506.868207,4566.376070 485.776291,4551.415682 476.385015,4564.584060"/>
    <poly id="112070476" type="building.yes" color="255,230,230" fill="1" layer="-1.00" shape="843.223713,4999.027537 844.911523,4985.251060 837.826919,4984.387447 830.669142,4983.511269 828.981372,4997.287750 843.223713,4999.027537"/>
    <poly id="112070480" type="building.apartments" color="255,230,230" fill="1" layer="-1.00" shape="598.869587,4647.234384 611.132175,4646.864533 610.391628,4622.512929 598.135870,4622.871790 598.869587,4647.234384"/>
    <poly id="112071955" type="building.industrial" color="255,230,230" fill="1" layer="-1.00" shape="1070.299859,5364.045450 1069.628825,5337.669742 1032.702710,5338.606031 1033.380618,5364.981863 1070.299859,5364.045450"/>
    <poly id="115596468" type="building.yes" color="255,230,230" fill="1" layer="-1.00" shape="475.695802,4665.523764 498.874932,4669.397290 501.303147,4654.923140 493.758618,4653.661502 478.123948,4651.049603 475.695802,4665.523764"/>
    <poly id="115596469" type="building.detached" color="255,230,230" fill="1" layer="-1.00" shape="788.403881,4675.006694 778.571055,4679.085287 781.432011,4685.963381 791.258153,4681.884662 788.403881,4675.006694"/>
    <poly id="115596470" type="building.detached" color="255,230,230" fill="1" layer="-1.00" shape="795.245907,4679.381876 808.195855,4674.296722 804.877789,4665.896151 791.927823,4670.981314 795.245907,4679.381876"/>
    <poly id="115596471" type="building.yes" color="255,230,230" fill="1" layer="-1.00" shape="685.761017,4711.913565 691.988407,4713.616850 692.549968,4711.547010 698.209036,4712.960868 702.425670,4701.916207 699.567646,4701.637141 700.965592,4698.114938 695.177239,4696.487090 693.649524,4701.509012 688.964304,4699.791699 685.761017,4711.913565"/>
    <poly id="115596472" type="building.apartments" color="255,230,230" fill="1" layer="-1.00" shape="831.889966,4665.295802 835.105799,4657.280516 821.831486,4651.097607 822.778127,4649.135557 824.451113,4650.270351 830.664482,4638.185903 816.648457,4631.365156 817.735000,4629.417002 801.906961,4622.749609 798.450905,4629.413670 784.739751,4657.107078 792.098897,4660.312916 797.388792,4649.690181 817.365096,4658.220160 821.344527,4669.627273 831.889966,4665.295802"/>
    <poly id="115596473" type="building.yes" color="255,230,230" fill="1" layer="-1.00" shape="674.099503,4709.234893 685.761017,4711.913565 688.964304,4699.791699 688.176442,4697.439239 683.794261,4696.262067 683.081589,4698.885322 677.318381,4697.335889 674.099503,4709.234893"/>
    <poly id="115596474" type="building.yes" color="255,230,230" fill="1" layer="-1.00" shape="664.448913,4707.141265 674.099503,4709.234893 677.318381,4697.335889 678.347287,4694.585348 675.230281,4693.900569 674.214147,4698.031238 670.902612,4696.719447 672.431049,4693.010640 668.341563,4691.883780 668.052982,4693.313591 664.448913,4707.141265"/>
    <poly id="115596475" type="building.yes" color="255,230,230" fill="1" layer="-1.00" shape="641.037111,4701.882453 643.206251,4691.420458 632.567150,4689.018036 630.723797,4699.208270 641.037111,4701.882453"/>
    <poly id="115596476" type="building.yes" color="255,230,230" fill="1" layer="-1.00" shape="654.592056,4704.676355 664.448913,4707.141265 668.052982,4693.313591 665.250232,4692.601646 664.620793,4695.404596 656.761225,4694.214367 654.592056,4704.676355"/>
    <poly id="115596477" type="building.apartments" color="255,230,230" fill="1" layer="-1.00" shape="773.098562,4678.698805 763.142795,4682.919661 767.097642,4692.200786 777.053394,4687.979939 773.098562,4678.698805"/>
    <poly id="115596551" type="building.kindergarten" color="255,230,230" fill="1" layer="-1.00" shape="707.308882,4659.859790 715.064892,4661.226102 717.363769,4648.262896 676.428753,4641.032758 674.205284,4653.563478 675.728642,4653.827275 675.105139,4657.342535 671.426748,4656.691176 670.164865,4663.799299 670.134658,4663.976750 673.520339,4664.577812 673.888838,4662.481898 697.010515,4666.555560 701.881488,4667.319541 705.945765,4668.034195 705.540151,4670.318548 708.214301,4670.783158 709.281203,4664.761735 706.527422,4664.273294 707.308882,4659.859790"/>
    <poly id="115596553" type="building.yes" color="255,230,230" fill="1" layer="-1.00" shape="752.747539,4699.572982 761.019302,4691.735564 751.360983,4682.608692 743.542423,4691.156157 745.449598,4693.274822 752.747539,4699.572982"/>
    <poly id="115596554" type="amenity.place_of_worship" color="237,199,199" fill="1" layer="-1.00" shape="732.610428,4719.427692 728.009714,4713.438848 731.431736,4708.487784 730.699325,4707.382752 740.913952,4694.119863 744.433557,4696.047860 745.449598,4693.274822 752.747539,4699.572982 751.224988,4701.968774 752.846708,4704.682709 732.610428,4719.427692"/>
    <poly id="115596554#1" type="building.church" color="255,230,230" fill="1" layer="-1.00" shape="732.610428,4719.427692 728.009714,4713.438848 731.431736,4708.487784 730.699325,4707.382752 740.913952,4694.119863 744.433557,4696.047860 745.449598,4693.274822 752.747539,4699.572982 751.224988,4701.968774 752.846708,4704.682709 732.610428,4719.427692"/>
    <poly id="115596555" type="building.school" color="255,230,230" fill="1" layer="-1.00" shape="569.538480,4813.631120 590.685549,4819.979929 593.799348,4809.670107 591.291111,4808.919507 606.225134,4759.449943 607.850822,4759.938302 611.007361,4749.495798 590.735905,4743.409016 579.573116,4780.378427 569.538480,4813.631120"/>
    <poly id="115597125" type="building.garages" color="255,230,230" fill="1" layer="-1.00" shape="533.821508,4629.324938 543.075818,4617.010824 538.083014,4613.284550 528.828711,4625.598674 533.821508,4629.324938"/>
    <poly id="115597126" type="building.apartments" color="255,230,230" fill="1" layer="-1.00" shape="552.872492,4536.303532 563.438994,4521.099814 539.228356,4505.532354 516.555414,4522.989911 530.149406,4539.393770 542.436800,4528.986757 552.872492,4536.303532"/>
    <poly id="115597127" type="building.house" color="255,230,230" fill="1" layer="-1.00" shape="768.267756,4605.391915 762.882525,4602.614648 759.162837,4609.785409 758.538111,4610.997134 760.560073,4612.038656 761.372217,4610.463414 764.735479,4612.199155 768.267756,4605.391915"/>
    <poly id="115597128" type="building.apartments" color="255,230,230" fill="1" layer="-1.00" shape="583.152967,4550.399608 582.505412,4544.655894 574.404114,4545.553102 575.051458,4551.307939 583.152967,4550.399608"/>
    <poly id="115597129" type="building.apartments" color="255,230,230" fill="1" layer="-1.00" shape="575.352697,4605.696498 587.074314,4604.670476 585.791612,4590.189854 574.069960,4591.215879 575.352697,4605.696498"/>
    <poly id="115597130" type="building.house" color="255,230,230" fill="1" layer="-1.00" shape="773.692576,4608.192227 768.267756,4605.391915 764.735479,4612.199155 764.554954,4612.551680 769.979767,4615.351989 773.692576,4608.192227"/>
    <poly id="115597131" type="building.yes" color="255,230,230" fill="1" layer="-1.00" shape="611.393448,4539.684622 601.790046,4539.239010 601.395344,4547.733020 610.998729,4548.178631 611.393448,4539.684622"/>
    <poly id="115597132" type="building.house" color="255,230,230" fill="1" layer="-1.00" shape="785.388123,4614.221347 779.236392,4611.050541 775.523357,4618.221422 781.668408,4621.392091 785.388123,4614.221347"/>
    <poly id="115597133" type="building.office" color="255,230,230" fill="1" layer="-1.00" shape="473.193749,4615.042278 476.742839,4601.269033 461.075795,4597.243301 457.519856,4611.027549 473.193749,4615.042278"/>
    <poly id="115597134" type="building.apartments" color="255,230,230" fill="1" layer="-1.00" shape="583.800520,4556.143322 583.152967,4550.399608 575.051458,4551.307939 575.699021,4557.051652 583.800520,4556.143322"/>
    <poly id="115597135" type="building.apartments" color="255,230,230" fill="1" layer="-1.00" shape="578.453113,4534.538414 580.894668,4536.645303 582.505412,4544.655894 574.404114,4545.553102 572.919943,4542.964357 578.453113,4534.538414"/>
    <poly id="115597136" type="building.apartments" color="255,230,230" fill="1" layer="-1.00" shape="516.555414,4522.989911 505.485137,4530.917200 514.647129,4540.879484 517.366932,4538.696418 523.895083,4545.468654 526.302641,4542.533855 529.219103,4545.607098 533.212664,4542.469912 530.149406,4539.393770 516.555414,4522.989911"/>
    <poly id="115597138" type="building.house" color="255,230,230" fill="1" layer="-1.00" shape="779.236392,4611.050541 773.692576,4608.192227 769.979767,4615.351989 775.523357,4618.221422 779.236392,4611.050541"/>
    <poly id="115597139" type="building.yes" color="255,230,230" fill="1" layer="-1.00" shape="617.102065,4539.953168 611.393448,4539.684622 610.998729,4548.178631 616.707335,4548.447177 617.102065,4539.953168"/>
    <poly id="115597140" type="building.apartments" color="255,230,230" fill="1" layer="-1.00" shape="584.448071,4561.887036 583.800520,4556.143322 575.699021,4557.051652 576.339909,4562.795233 584.448071,4561.887036"/>
    <poly id="115597141" type="building.yes" color="255,230,230" fill="1" layer="-1.00" shape="659.822111,4554.184182 661.659188,4554.788015 659.339230,4561.730566 668.324859,4564.723531 671.900832,4554.011151 673.029036,4550.628274 662.212975,4547.031600 659.822111,4554.184182"/>
    <poly id="115597142" type="building.yes" color="255,230,230" fill="1" layer="-1.00" shape="622.931666,4540.179599 617.102065,4539.953168 616.707335,4548.447177 622.249348,4548.701311 622.931666,4540.179599"/>
    <poly id="115597144" type="building.apartments" color="255,230,230" fill="1" layer="-1.00" shape="585.088947,4567.630619 584.448071,4561.887036 576.339909,4562.795233 576.987467,4568.538946 585.088947,4567.630619"/>
    <poly id="115597145" type="building.yes" color="255,230,230" fill="1" layer="-1.00" shape="648.830026,4556.793495 651.364122,4557.255304 652.219083,4552.498277 654.533866,4552.911241 655.905945,4545.293403 651.063509,4544.429884 650.523742,4547.423784 648.830026,4556.793495"/>
    <poly id="115597146" type="building.yes" color="255,230,230" fill="1" layer="-1.00" shape="599.084699,4551.504298 597.818348,4539.238471 587.771814,4540.275291 589.038190,4552.541115 599.084699,4551.504298"/>
    <poly id="115597147" type="building.yes" color="255,230,230" fill="1" layer="-1.00" shape="634.881461,4541.127856 622.931666,4540.179599 622.249348,4548.701311 622.161309,4549.778990 624.587251,4549.971575 624.807460,4547.271817 634.331074,4548.038611 634.881461,4541.127856"/>
    <poly id="115597148" type="building.yes" color="255,230,230" fill="1" layer="-1.00" shape="590.785294,4660.461739 590.613786,4649.541767 579.616682,4649.714097 571.978204,4649.830353 572.149754,4660.750325 590.785294,4660.461739"/>
    <poly id="115597149" type="building.apartments" color="255,230,230" fill="1" layer="-1.00" shape="585.736274,4573.385457 585.088947,4567.630619 576.987467,4568.538946 577.635024,4574.282660 585.736274,4573.385457"/>
    <poly id="115597150" type="building.apartments" color="255,230,230" fill="1" layer="-1.00" shape="498.325922,4538.198345 490.424862,4547.556932 509.508882,4561.097852 516.475370,4555.126026 498.325922,4538.198345"/>
    <poly id="115597151" type="building.yes" color="255,230,230" fill="1" layer="-1.00" shape="638.693186,4550.239114 637.868445,4554.818692 648.830026,4556.793495 650.523742,4547.423784 639.562139,4545.448977 638.693186,4550.239114"/>
    <poly id="115597154" type="amenity.community_centre" color="237,199,199" fill="1" layer="-1.00" shape="585.277603,4645.630613 584.791633,4623.253702 579.592635,4622.872846 573.959824,4616.741373 569.774060,4620.486770 556.606902,4621.028049 556.964760,4630.627462 569.021805,4630.865486 571.450187,4632.960984 573.839411,4635.011198 574.205117,4645.901619 579.480917,4645.772098 585.277603,4645.630613"/>
    <poly id="115597154#1" type="building.yes" color="255,230,230" fill="1" layer="-1.00" shape="585.277603,4645.630613 584.791633,4623.253702 579.592635,4622.872846 573.959824,4616.741373 569.774060,4620.486770 556.606902,4621.028049 556.964760,4630.627462 569.021805,4630.865486 571.450187,4632.960984 573.839411,4635.011198 574.205117,4645.901619 579.480917,4645.772098 585.277603,4645.630613"/>
    <poly id="115597155" type="building.apartments" color="255,230,230" fill="1" layer="-1.00" shape="586.383820,4579.129172 585.736274,4573.385457 577.635024,4574.282660 578.282359,4580.037497 586.383820,4579.129172"/>
    <poly id="115597156" type="building.yes" color="255,230,230" fill="1" layer="-1.00" shape="560.177374,4538.217081 571.224560,4546.002217 572.919943,4542.964357 578.453113,4534.538414 567.405911,4526.753261 560.177374,4538.217081"/>
    <poly id="115597157" type="building.yes" color="255,230,230" fill="1" layer="-1.00" shape="634.331074,4548.038611 634.172292,4549.994005 638.693186,4550.239114 639.562139,4545.448977 640.050119,4541.697348 634.881461,4541.127856 634.331074,4548.038611"/>
    <poly id="115597158" type="building.yes" color="255,230,230" fill="1" layer="-1.00" shape="552.891518,4589.785141 542.222965,4602.727878 549.783290,4608.941869 552.943028,4605.098305 557.192908,4608.587369 566.377552,4597.440363 564.380527,4595.809632 569.461804,4589.644875 555.450763,4578.151244 548.694118,4586.341630 552.891518,4589.785141"/>
    <poly id="115597159" type="building.apartments" color="255,230,230" fill="1" layer="-1.00" shape="505.485137,4530.917200 498.325922,4538.198345 516.475370,4555.126026 522.308732,4547.718593 514.647129,4540.879484 505.485137,4530.917200"/>
    <poly id="115597225" type="leisure.park" color="207,245,201" fill="1" layer="-2.00" shape="801.462756,4591.905041 819.450735,4590.625256 823.771982,4588.140221 795.504482,4519.254619 788.590990,4511.394957 773.362088,4505.462851 764.309287,4505.862410 732.842237,4512.284047 706.874545,4512.683072 701.731099,4514.551045 715.543350,4522.925332 751.653951,4550.702835 747.501328,4559.511989 787.620270,4584.064041 801.462756,4591.905041"/>
    <poly id="115597226" type="natural.scrub" color="140,196,107" fill="1" layer="-4.00" shape="723.714176,4749.397585 726.950174,4733.937980 753.149701,4711.298753 786.802536,4694.538086 848.940128,4665.855952 856.100137,4664.284019 859.610463,4664.320152 838.949169,4674.883268 758.518913,4712.517772 737.990886,4730.539729 723.714176,4749.397585"/>
    <poly id="115597316" type="building.yes" color="255,230,230" fill="1" layer="-1.00" shape="133.308992,4600.761728 159.608171,4613.007508 176.072500,4573.771177 150.585339,4562.654071 145.875357,4573.389030 133.308992,4600.761728"/>
    <poly id="115597316#1" type="leisure.sports_centre" color="207,245,201" fill="1" layer="-2.00" shape="133.308992,4600.761728 159.608171,4613.007508 176.072500,4573.771177 150.585339,4562.654071 145.875357,4573.389030 133.308992,4600.761728"/>
    <poly id="115597317" type="amenity.school" color="237,199,199" fill="1" layer="-2.00" shape="181.478153,4566.699904 200.190134,4524.859379 198.212980,4524.586811 160.412809,4519.436966 160.164077,4520.544875 152.832002,4553.628921 181.478153,4566.699904"/>
    <poly id="115597317#1" type="building.school" color="255,230,230" fill="1" layer="-1.00" shape="181.478153,4566.699904 200.190134,4524.859379 198.212980,4524.586811 160.412809,4519.436966 160.164077,4520.544875 152.832002,4553.628921 181.478153,4566.699904"/>
    <poly id="115599778" type="building.office" color="255,230,230" fill="1" layer="-1.00" shape="86.077510,4471.906552 75.587031,4471.077359 74.600179,4483.599210 85.917159,4484.489147 85.810652,4485.833540 103.592622,4487.228850 103.903737,4483.284529 100.484840,4483.005937 100.733293,4479.872727 117.195635,4481.164269 119.666718,4449.843041 101.778067,4448.434452 102.942804,4433.657119 89.186345,4432.574568 86.077510,4471.906552"/>
    <poly id="115599779" type="building.yes" color="255,230,230" fill="1" layer="-1.00" shape="91.727878,4420.428223 101.636513,4420.978947 102.877749,4398.569324 92.969068,4398.018598 92.277912,4409.077361 91.927751,4417.049243 91.727878,4420.428223"/>
    <poly id="116726503" type="building.yes" color="255,230,230" fill="1" layer="-1.00" shape="933.657825,5303.691399 933.439300,5314.714969 942.025467,5314.885184 942.244013,5303.861614 933.657825,5303.691399"/>
    <poly id="116726505" type="building.yes" color="255,230,230" fill="1" layer="-1.00" shape="942.244013,5303.861614 954.169574,5305.934186 950.666827,5312.608337 942.025467,5314.885184 942.244013,5303.861614"/>
    <poly id="116726506" type="building.yes" color="255,230,230" fill="1" layer="-1.00" shape="954.861326,5233.682311 969.023692,5235.042557 970.010492,5216.244584 969.826840,5197.234224 955.294058,5198.392703 955.918425,5214.028870 956.734013,5215.981323 955.131995,5231.139353 954.861326,5233.682311"/>
    <poly id="116726508" type="building.yes" color="255,230,230" fill="1" layer="-1.00" shape="918.543852,5214.311751 955.918425,5214.028870 955.294058,5198.392703 948.099127,5198.060875 947.853872,5195.618969 934.404983,5196.643208 918.412553,5197.027285 918.543852,5214.311751"/>
    <poly id="116726509" type="building.yes" color="255,230,230" fill="1" layer="-1.00" shape="954.169574,5305.934186 957.933534,5286.423440 953.435676,5285.388372 946.384616,5284.202535 942.244013,5303.861614 954.169574,5305.934186"/>
    <poly id="116726732" type="building.yes" color="255,230,230" fill="1" layer="-1.00" shape="932.144026,5001.601561 930.505300,4989.317098 919.061715,4990.837395 920.694019,5003.110597 928.135654,5002.123027 932.144026,5001.601561"/>
    <poly id="116726735" type="building.yes" color="255,230,230" fill="1" layer="-1.00" shape="941.903948,5062.454024 940.654328,5048.051812 926.507187,5049.262549 927.756629,5063.675881 941.903948,5062.454024"/>
    <poly id="116726735#1" type="shop.hairdresser" color="237,199,255" fill="1" layer="-1.00" shape="941.903948,5062.454024 940.654328,5048.051812 926.507187,5049.262549 927.756629,5063.675881 941.903948,5062.454024"/>
    <poly id="116726736" type="building.yes" color="255,230,230" fill="1" layer="-1.00" shape="1029.648138,5029.385679 1016.223782,5031.166897 1017.839439,5048.302771 1019.651699,5048.127293 1020.636535,5057.360862 1027.572005,5055.306241 1027.741090,5057.212493 1032.115397,5056.075202 1029.648138,5029.385679"/>
    <poly id="116726737" type="building.yes" color="255,230,230" fill="1" layer="-1.00" shape="934.313249,5033.927029 931.513192,5012.550185 920.772856,5013.950879 923.572959,5035.327715 934.313249,5033.927029"/>
    <poly id="116726738" type="building.yes" color="255,230,230" fill="1" layer="-1.00" shape="928.135654,5002.123027 920.694019,5003.110597 915.032622,5003.855258 915.636336,5008.418594 928.746249,5006.675373 928.135654,5002.123027"/>
    <poly id="116726893" type="building.yes" color="255,230,230" fill="1" layer="-1.00" shape="1088.523759,4958.789383 1091.653473,4930.920092 1075.070449,4929.066335 1071.934159,4956.935504 1088.523759,4958.789383"/>
    <poly id="116726899" type="building.yes" color="255,230,230" fill="1" layer="-1.00" shape="1037.507610,4880.192000 1046.347980,4881.046234 1051.605198,4827.691389 1042.758279,4826.825890 1037.507610,4880.192000"/>
    <poly id="116727313" type="building.yes" color="255,230,230" fill="1" layer="-1.00" shape="931.159116,4954.310090 931.924311,4948.705593 933.467609,4937.519110 934.317224,4931.359884 924.352396,4929.993935 921.194335,4952.944147 931.159116,4954.310090"/>
    <poly id="116727315" type="landuse.grass" color="194,194,130" fill="1" layer="-3.00" shape="1056.650337,4986.143749 1042.581828,4983.716834 1033.447902,4980.174915 1032.432817,4969.438456 1027.710820,4923.842149 1029.059060,4906.687184 1034.132342,4898.586469 1042.532193,4897.083937 1048.893945,4901.416587 1051.017821,4910.094106 1041.672315,4915.862159 1033.207496,4928.714018 1036.491684,4953.928588 1041.184456,4963.992445 1049.455231,4977.732805 1056.650337,4986.143749"/>
    <poly id="116727317" type="landuse.grass" color="194,194,130" fill="1" layer="-3.00" shape="1007.737591,4968.058273 1013.128470,4967.831372 1018.990205,4966.411989 1021.542585,4961.566283 1021.238391,4945.947588 1017.916322,4912.208191 1019.146676,4896.619941 1022.039166,4874.632652 1028.610509,4837.116823 1035.933466,4808.484974 1029.187411,4808.039540 1026.495744,4820.238123 1018.057913,4858.640554 1011.939226,4888.820859 1007.885773,4907.424452 1005.336900,4927.571307 1006.472908,4947.357263 1007.193052,4958.833443 1007.737591,4968.058273"/>
    <poly id="116727318" type="building.office" color="255,230,230" fill="1" layer="-1.00" shape="1148.011514,4960.950075 1146.431943,4977.633047 1156.298270,4978.574641 1157.900101,4961.780833 1160.344952,4962.018586 1161.317771,4951.688815 1158.825990,4951.461258 1159.103407,4948.584601 1150.562531,4947.780615 1150.300232,4950.568548 1146.969329,4950.246430 1145.972989,4960.753785 1148.011514,4960.950075"/>
    <poly id="116727544" type="building.apartments" color="255,230,230" fill="1" layer="-1.00" shape="817.981923,4971.319694 823.224948,4954.286311 808.204268,4949.036978 803.852135,4961.191672 810.472803,4962.902908 809.135947,4968.395952 817.981923,4971.319694"/>