<?xml version="1.0" encoding="UTF-8"?>

<!-- generated on 2022-01-10 15:46:51 by Eclipse SUMO netconvert Version 1.11.0
<configuration xmlns:xsi="http://www.w3.org/2001/XMLSchema-instance" xsi:noNamespaceSchemaLocation="http://sumo.dlr.de/xsd/netconvertConfiguration.xsd">

    <input>
        <type-files value="C:\Program%20Files%20(x86)\Eclipse\Sumo\data\typemap\osmNetconvert.typ.xml"/>
        <osm-files value="osm_bbox.osm.xml"/>
    </input>

    <output>
        <output-file value="osm.net.xml"/>
        <output.street-names value="true"/>
        <output.original-names value="true"/>
        <ptstop-output value="osm_stops.add.xml"/>
        <ptline-output value="osm_ptlines.xml"/>
    </output>

    <projection>
        <proj.utm value="true"/>
    </projection>

    <processing>
        <geometry.remove value="true"/>
        <roundabouts.guess value="true"/>
    </processing>

    <tls_building>
        <tls.discard-simple value="true"/>
        <tls.join value="true"/>
        <tls.guess-signals value="true"/>
        <tls.default-type value="actuated"/>
    </tls_building>

    <ramp_guessing>
        <ramps.guess value="true"/>
    </ramp_guessing>

    <junctions>
        <junctions.join value="true"/>
        <junctions.corner-detail value="5"/>
    </junctions>

    <railway>
        <railway.topology.repair value="true"/>
        <railway.topology.repair.stop-turn value="true"/>
    </railway>

    <report>
        <verbose value="true"/>
        <aggregate-warnings value="5"/>
    </report>

</configuration>
-->

<net version="1.9" junctionCornerDetail="5" limitTurnSpeed="5.50" xmlns:xsi="http://www.w3.org/2001/XMLSchema-instance" xsi:noNamespaceSchemaLocation="http://sumo.dlr.de/xsd/net_file.xsd">

    <location netOffset="-593621.33,-5895826.17" convBoundary="0.00,0.00,2096.91,5548.84" origBoundary="10.403239,53.203132,10.433058,53.253197" projParameter="+proj=utm +zone=32 +ellps=WGS84 +datum=WGS84 +units=m +no_defs"/>

    <type id="highway.bridleway" priority="1" numLanes="1" speed="2.78" allow="pedestrian" oneway="1" width="2.00"/>
    <type id="highway.bus_guideway" priority="1" numLanes="1" speed="27.78" allow="bus" oneway="1"/>
    <type id="highway.cycleway" priority="1" numLanes="1" speed="8.33" allow="bicycle" oneway="0" width="1.00"/>
    <type id="highway.footway" priority="1" numLanes="1" speed="2.78" allow="pedestrian" oneway="1" width="2.00"/>
    <type id="highway.ford" priority="1" numLanes="1" speed="2.78" allow="army" oneway="0"/>
    <type id="highway.living_street" priority="2" numLanes="1" speed="2.78" disallow="tram rail_urban rail rail_electric rail_fast ship" oneway="0"/>
    <type id="highway.motorway" priority="14" numLanes="2" speed="39.44" allow="private emergency authority army vip passenger hov taxi bus coach delivery truck trailer motorcycle evehicle custom1 custom2" oneway="1"/>
    <type id="highway.motorway_link" priority="9" numLanes="1" speed="22.22" allow="private emergency authority army vip passenger hov taxi bus coach delivery truck trailer motorcycle evehicle custom1 custom2" oneway="1"/>
    <type id="highway.path" priority="1" numLanes="1" speed="2.78" allow="pedestrian bicycle" oneway="0" width="2.00"/>
    <type id="highway.pedestrian" priority="1" numLanes="1" speed="2.78" allow="pedestrian" oneway="1" width="2.00"/>
    <type id="highway.primary" priority="12" numLanes="2" speed="27.78" disallow="tram rail_urban rail rail_electric rail_fast ship" oneway="0"/>
    <type id="highway.primary_link" priority="7" numLanes="1" speed="22.22" disallow="tram rail_urban rail rail_electric rail_fast ship" oneway="0"/>
    <type id="highway.raceway" priority="15" numLanes="2" speed="83.33" allow="vip" oneway="0"/>
    <type id="highway.residential" priority="3" numLanes="1" speed="13.89" disallow="tram rail_urban rail rail_electric rail_fast ship" oneway="0"/>
    <type id="highway.secondary" priority="11" numLanes="1" speed="27.78" disallow="tram rail_urban rail rail_electric rail_fast ship" oneway="0"/>
    <type id="highway.secondary_link" priority="6" numLanes="1" speed="22.22" disallow="tram rail_urban rail rail_electric rail_fast ship" oneway="0"/>
    <type id="highway.service" priority="1" numLanes="1" speed="5.56" allow="pedestrian delivery bicycle" oneway="0"/>
    <type id="highway.stairs" priority="1" numLanes="1" speed="1.39" allow="pedestrian" oneway="1" width="2.00"/>
    <type id="highway.step" priority="1" numLanes="1" speed="1.39" allow="pedestrian" oneway="1" width="2.00"/>
    <type id="highway.steps" priority="1" numLanes="1" speed="1.39" allow="pedestrian" oneway="1" width="2.00"/>
    <type id="highway.tertiary" priority="10" numLanes="1" speed="22.22" disallow="tram rail_urban rail rail_electric rail_fast ship" oneway="0"/>
    <type id="highway.tertiary_link" priority="5" numLanes="1" speed="22.22" disallow="tram rail_urban rail rail_electric rail_fast ship" oneway="0"/>
    <type id="highway.track" priority="1" numLanes="1" speed="5.56" allow="pedestrian motorcycle moped bicycle" oneway="0"/>
    <type id="highway.trunk" priority="13" numLanes="2" speed="27.78" disallow="pedestrian bicycle tram rail_urban rail rail_electric rail_fast ship" oneway="0"/>
    <type id="highway.trunk_link" priority="8" numLanes="1" speed="22.22" disallow="pedestrian bicycle tram rail_urban rail rail_electric rail_fast ship" oneway="0"/>
    <type id="highway.unclassified" priority="4" numLanes="1" speed="13.89" disallow="tram rail_urban rail rail_electric rail_fast ship" oneway="0"/>
    <type id="highway.unsurfaced" priority="1" numLanes="1" speed="8.33" disallow="tram rail_urban rail rail_electric rail_fast ship" oneway="0"/>
    <type id="railway.highspeed" priority="21" numLanes="1" speed="69.44" allow="rail_fast" oneway="1"/>
    <type id="railway.light_rail" priority="19" numLanes="1" speed="27.78" allow="rail_urban" oneway="1"/>
    <type id="railway.preserved" priority="16" numLanes="1" speed="27.78" allow="rail" oneway="1"/>
    <type id="railway.rail" priority="20" numLanes="1" speed="44.44" allow="rail" oneway="1"/>
    <type id="railway.subway" priority="18" numLanes="1" speed="27.78" allow="rail_urban" oneway="1"/>
    <type id="railway.tram" priority="17" numLanes="1" speed="13.89" allow="tram" oneway="1"/>

    <edge id=":1046267359_0" function="internal">
        <lane id=":1046267359_0_0" index="0" disallow="tram rail_urban rail rail_electric rail_fast ship" speed="13.89" length="8.69" shape="775.33,4435.77 772.12,4427.70"/>
        <lane id=":1046267359_0_1" index="1" disallow="tram rail_urban rail rail_electric rail_fast ship" speed="13.89" length="8.69" shape="778.30,4434.59 775.09,4426.52"/>
    </edge>
    <edge id=":1046267359_2" function="internal">
        <lane id=":1046267359_2_0" index="0" disallow="tram rail_urban rail rail_electric rail_fast ship" speed="13.89" length="8.50" shape="784.01,4422.97 784.96,4425.30 785.78,4426.83 786.87,4428.18 788.65,4429.96"/>
    </edge>
    <edge id=":1046267359_3" function="internal">
        <lane id=":1046267359_3_0" index="0" disallow="tram rail_urban rail rail_electric rail_fast ship" speed="13.89" length="9.43" shape="784.01,4422.97 784.53,4425.63 784.13,4427.60 783.73,4429.57 784.25,4432.22"/>
        <lane id=":1046267359_3_1" index="1" disallow="tram rail_urban rail rail_electric rail_fast ship" speed="13.89" length="9.43" shape="781.04,4424.15 781.55,4426.81 781.15,4428.78 780.75,4430.75 781.27,4433.41"/>
    </edge>
    <edge id=":1046267359_5" function="internal">
        <lane id=":1046267359_5_0" index="0" disallow="tram rail_urban rail rail_electric rail_fast ship" speed="3.65" length="2.34" shape="778.06,4425.34 777.76,4426.75 777.17,4427.41"/>
    </edge>
    <edge id=":1046267359_6" function="internal">
        <lane id=":1046267359_6_0" index="0" disallow="tram rail_urban rail rail_electric rail_fast ship" speed="3.65" length="2.34" shape="777.17,4427.41 776.28,4427.34 775.09,4426.52"/>
    </edge>
    <edge id=":1046267424_0" function="internal">
        <lane id=":1046267424_0_0" index="0" disallow="tram rail_urban rail rail_electric rail_fast ship" speed="13.89" length="17.00" shape="852.47,4430.99 841.98,4444.65"/>
        <lane id=":1046267424_0_1" index="1" disallow="tram rail_urban rail rail_electric rail_fast ship" speed="13.89" length="17.00" shape="849.81,4429.21 839.45,4442.69"/>
        <lane id=":1046267424_0_2" index="2" disallow="tram rail_urban rail rail_electric rail_fast ship" speed="13.89" length="17.00" shape="847.16,4427.42 836.93,4440.72"/>
    </edge>
    <edge id=":1046267424_3" function="internal">
        <lane id=":1046267424_3_0" index="0" disallow="tram rail_urban rail rail_electric rail_fast ship" speed="3.65" length="2.44" shape="847.16,4427.42 845.82,4427.97 844.94,4427.85 844.89,4427.76"/>
    </edge>
    <edge id=":1046267424_7" function="internal">
        <lane id=":1046267424_7_0" index="0" disallow="tram rail_urban rail rail_electric rail_fast ship" speed="3.65" length="2.23" shape="844.89,4427.76 844.50,4427.07 844.51,4425.63"/>
    </edge>
    <edge id=":1046267424_4" function="internal">
        <lane id=":1046267424_4_0" index="0" disallow="tram rail_urban rail rail_electric rail_fast ship" speed="13.89" length="16.39" shape="831.32,4435.14 834.84,4433.22 838.51,4431.04 841.88,4428.53 844.51,4425.63"/>
    </edge>
    <edge id=":1046267424_5" function="internal">
        <lane id=":1046267424_5_0" index="0" disallow="tram rail_urban rail rail_electric rail_fast ship" speed="13.89" length="16.57" shape="834.40,4438.76 844.51,4425.63"/>
    </edge>
    <edge id=":1046267424_6" function="internal">
        <lane id=":1046267424_6_0" index="0" disallow="tram rail_urban rail rail_electric rail_fast ship" speed="3.65" length="2.34" shape="834.40,4438.76 835.77,4438.30 836.65,4438.48"/>
    </edge>
    <edge id=":1046267424_8" function="internal">
        <lane id=":1046267424_8_0" index="0" disallow="tram rail_urban rail rail_electric rail_fast ship" speed="3.65" length="2.34" shape="836.65,4438.48 837.03,4439.29 836.93,4440.72"/>
    </edge>
    <edge id=":105341695_0" function="internal">
        <lane id=":105341695_0_0" index="0" allow="pedestrian delivery bicycle" speed="6.08" length="6.64" shape="139.82,5079.03 139.08,5077.70 137.92,5076.84 136.32,5076.45 134.29,5076.52"/>
    </edge>
    <edge id=":105341695_1" function="internal">
        <lane id=":105341695_1_0" index="0" disallow="tram rail_urban rail rail_electric rail_fast ship" speed="13.89" length="10.27" shape="139.82,5079.03 138.85,5076.18 138.09,5074.19 137.23,5072.25 135.95,5069.52"/>
    </edge>
    <edge id=":105341695_2" function="internal">
        <lane id=":105341695_2_0" index="0" disallow="tram rail_urban rail rail_electric rail_fast ship" speed="13.89" length="10.65" shape="138.85,5068.17 140.15,5070.95 141.06,5073.01 141.87,5075.12 142.85,5078.02"/>
    </edge>
    <edge id=":105341695_3" function="internal">
        <lane id=":105341695_3_0" index="0" allow="pedestrian delivery bicycle" speed="6.69" length="5.43" shape="138.85,5068.17 139.85,5071.42 139.50,5073.42"/>
    </edge>
    <edge id=":105341695_7" function="internal">
        <lane id=":105341695_7_0" index="0" allow="pedestrian delivery bicycle" speed="6.69" length="6.40" shape="139.50,5073.42 139.42,5073.89 137.56,5075.59 134.29,5076.52"/>
    </edge>
    <edge id=":105341695_4" function="internal">
        <lane id=":105341695_4_0" index="0" allow="pedestrian delivery bicycle" speed="4.78" length="5.42" shape="133.86,5073.35 135.36,5072.92 136.21,5072.14 136.41,5071.01 135.95,5069.52"/>
    </edge>
    <edge id=":105341695_5" function="internal">
        <lane id=":105341695_5_0" index="0" allow="pedestrian delivery bicycle" speed="7.67" length="11.12" shape="133.86,5073.35 137.10,5073.28 139.68,5074.04 141.59,5075.62 142.85,5078.02"/>
    </edge>
    <edge id=":105341695_6" function="internal">
        <lane id=":105341695_6_0" index="0" allow="pedestrian delivery bicycle" speed="3.65" length="4.67" shape="133.86,5073.35 135.16,5073.98 135.66,5074.72 135.37,5075.57 134.29,5076.52"/>
    </edge>
    <edge id=":105341775_0" function="internal">
        <lane id=":105341775_0_0" index="0" disallow="tram rail_urban rail rail_electric rail_fast ship" speed="13.89" length="6.48" shape="137.17,5198.08 135.43,5198.86 134.35,5199.60 133.37,5200.52 131.98,5201.85"/>
    </edge>
    <edge id=":105341775_1" function="internal">
        <lane id=":105341775_1_0" index="0" disallow="tram rail_urban rail rail_electric rail_fast ship" speed="3.65" length="2.34" shape="137.17,5198.08 135.76,5197.78 135.10,5197.18"/>
    </edge>
    <edge id=":105341775_6" function="internal">
        <lane id=":105341775_6_0" index="0" disallow="tram rail_urban rail rail_electric rail_fast ship" speed="3.65" length="2.34" shape="135.10,5197.18 135.18,5196.29 136.00,5195.10"/>
    </edge>
    <edge id=":105341775_2" function="internal">
        <lane id=":105341775_2_0" index="0" disallow="tram rail_urban rail rail_electric rail_fast ship" speed="8.83" length="7.07" shape="129.11,5195.03 130.79,5195.59 132.49,5195.79 134.23,5195.62 136.00,5195.10"/>
    </edge>
    <edge id=":105341775_3" function="internal">
        <lane id=":105341775_3_0" index="0" disallow="tram rail_urban rail rail_electric rail_fast ship" speed="5.86" length="9.41" shape="129.11,5195.03 131.91,5196.62 133.32,5198.28 133.34,5200.03 131.98,5201.85"/>
    </edge>
    <edge id=":105341775_4" function="internal">
        <lane id=":105341775_4_0" index="0" disallow="tram rail_urban rail rail_electric rail_fast ship" speed="13.89" length="7.65" shape="129.83,5199.48 131.48,5197.92 132.65,5196.85 133.95,5196.01 136.00,5195.10"/>
    </edge>
    <edge id=":105341775_5" function="internal">
        <lane id=":105341775_5_0" index="0" disallow="tram rail_urban rail rail_electric rail_fast ship" speed="3.65" length="2.34" shape="129.83,5199.48 131.26,5199.26 132.09,5199.59"/>
    </edge>
    <edge id=":105341775_7" function="internal">
        <lane id=":105341775_7_0" index="0" disallow="tram rail_urban rail rail_electric rail_fast ship" speed="3.65" length="2.34" shape="132.09,5199.59 132.33,5200.45 131.98,5201.85"/>
    </edge>
    <edge id=":105341796_0" function="internal">
        <lane id=":105341796_0_0" index="0" disallow="tram rail_urban rail rail_electric rail_fast ship" speed="9.72" length="8.88" shape="166.81,5205.69 165.76,5203.29 164.86,5201.70 163.65,5200.35 161.67,5198.63"/>
    </edge>
    <edge id=":105341796_1" function="internal">
        <lane id=":105341796_1_0" index="0" disallow="tram rail_urban rail rail_electric rail_fast ship" speed="5.53" length="7.37" shape="166.81,5205.69 165.94,5203.13 165.78,5201.22 166.33,5199.98 167.59,5199.39"/>
    </edge>
    <edge id=":105341796_2" function="internal">
        <lane id=":105341796_2_0" index="0" disallow="tram rail_urban rail rail_electric rail_fast ship" speed="8.67" length="7.62" shape="168.09,5202.55 167.14,5202.39 165.76,5201.69 163.93,5200.43 161.67,5198.63"/>
    </edge>
    <edge id=":105341796_3" function="internal">
        <lane id=":105341796_3_0" index="0" disallow="tram rail_urban rail rail_electric rail_fast ship" speed="3.65" length="4.67" shape="168.09,5202.55 166.78,5201.95 166.26,5201.22 166.53,5200.37 167.59,5199.39"/>
    </edge>
    <edge id=":105341872_0" function="internal">
        <lane id=":105341872_0_0" index="0" disallow="tram rail_urban rail rail_electric rail_fast ship" speed="4.03" length="4.23" shape="222.77,5365.77 224.05,5366.06 224.82,5365.82 225.09,5365.06 224.84,5363.77"/>
    </edge>
    <edge id=":105341895_0" function="internal">
        <lane id=":105341895_0_0" index="0" disallow="tram rail_urban rail rail_electric rail_fast ship" speed="2.78" length="4.67" shape="311.11,5394.05 310.36,5395.28 309.58,5395.72 308.77,5395.35 307.91,5394.19"/>
    </edge>
    <edge id=":105711202_0" function="internal">
        <lane id=":105711202_0_0" index="0" allow="pedestrian bus" speed="2.78" length="2.92" width="2.00" shape="535.61,4975.24 534.89,4975.78 534.33,4975.85 533.94,4975.44 533.72,4974.57"/>
    </edge>
    <edge id=":105796726_0" function="internal">
        <lane id=":105796726_0_0" index="0" allow="pedestrian bus" speed="2.78" length="2.92" width="2.00" shape="599.45,4919.84 598.58,4919.61 598.18,4919.22 598.26,4918.67 598.80,4917.95"/>
    </edge>
    <edge id=":105796726_1" function="internal">
        <lane id=":105796726_1_0" index="0" allow="pedestrian bus" speed="2.78" length="2.92" width="2.00" shape="587.66,4922.10 588.54,4922.30 588.95,4922.68 588.90,4923.23 588.38,4923.97"/>
    </edge>
    <edge id=":105796781_0" function="internal">
        <lane id=":105796781_0_0" index="0" allow="pedestrian bus" speed="2.78" length="2.92" width="2.00" shape="680.05,4903.39 679.41,4902.76 679.26,4902.22 679.60,4901.78 680.44,4901.43"/>
    </edge>
    <edge id=":105796781_1" function="internal">
        <lane id=":105796781_1_0" index="0" allow="pedestrian bus" speed="2.78" length="2.92" width="2.00" shape="679.99,4901.38 680.71,4901.91 680.94,4902.42 680.67,4902.91 679.90,4903.38"/>
    </edge>
    <edge id=":106151014_0" function="internal">
        <lane id=":106151014_0_0" index="0" disallow="tram rail_urban rail rail_electric rail_fast ship" speed="13.89" length="7.78" shape="1150.03,5012.14 1142.35,5011.59"/>
        <lane id=":106151014_0_1" index="1" disallow="tram rail_urban rail rail_electric rail_fast ship" speed="13.89" length="7.78" shape="1150.34,5008.95 1142.50,5008.39"/>
    </edge>
    <edge id=":106151014_2" function="internal">
        <lane id=":106151014_2_0" index="0" disallow="tram rail_urban rail rail_electric rail_fast ship" speed="13.89" length="8.44" shape="1142.66,5005.19 1145.18,5004.82 1146.81,5003.81 1148.44,5002.85 1150.94,5002.58"/>
        <lane id=":106151014_2_1" index="1" disallow="tram rail_urban rail rail_electric rail_fast ship" speed="13.89" length="8.44" shape="1142.66,5005.19 1150.64,5005.77"/>
    </edge>
    <edge id=":1071224989_0" function="internal">
        <lane id=":1071224989_0_0" index="0" allow="rail" speed="44.44" length="2.95" shape="1156.58,4308.30 1156.85,4307.47 1157.01,4306.90 1157.14,4306.31 1157.29,4305.45"/>
    </edge>
    <edge id=":1071224989_1" function="internal">
        <lane id=":1071224989_1_0" index="0" allow="rail" speed="44.44" length="2.93" shape="1156.79,4308.34 1157.29,4305.45"/>
    </edge>
    <edge id=":109895263_0" function="internal">
        <lane id=":109895263_0_0" index="0" allow="pedestrian delivery bicycle" speed="5.09" length="4.95" shape="860.50,4424.50 859.26,4423.96 858.14,4423.94 857.12,4424.43 856.22,4425.43"/>
    </edge>
    <edge id=":109895263_1" function="internal">
        <lane id=":109895263_1_0" index="0" allow="pedestrian delivery bicycle" speed="8.33" length="15.51" shape="860.50,4424.50 856.03,4421.30 853.25,4418.26 852.17,4415.37 852.78,4412.63"/>
    </edge>
    <edge id=":109895263_2" function="internal">
        <lane id=":109895263_2_0" index="0" allow="pedestrian delivery bicycle" speed="2.78" length="4.67" shape="860.50,4424.50 859.90,4423.19 859.98,4422.30 860.74,4421.83 862.18,4421.78"/>
    </edge>
    <edge id=":109895263_3" function="internal">
        <lane id=":109895263_3_0" index="0" allow="pedestrian delivery bicycle" speed="7.15" length="10.71" shape="855.59,4414.17 855.45,4415.64 856.51,4417.40 858.75,4419.44 862.18,4421.78"/>
    </edge>
    <edge id=":109895263_4" function="internal">
        <lane id=":109895263_4_0" index="0" disallow="tram rail_urban rail rail_electric rail_fast ship" speed="13.89" length="9.42" shape="855.59,4414.17 854.67,4416.88 854.72,4418.99 854.69,4421.06 853.57,4423.64"/>
        <lane id=":109895263_4_1" index="1" disallow="tram rail_urban rail rail_electric rail_fast ship" speed="13.89" length="9.42" shape="855.59,4414.17 854.30,4416.51 853.38,4418.09 852.40,4419.63 850.91,4421.85"/>
    </edge>
    <edge id=":109895263_6" function="internal">
        <lane id=":109895263_6_0" index="0" disallow="tram rail_urban rail rail_electric rail_fast ship" speed="13.89" length="8.71" shape="848.26,4420.06 849.70,4417.91 850.65,4416.42 851.53,4414.89 852.78,4412.63"/>
    </edge>
    <edge id=":109999867_0" function="internal">
        <lane id=":109999867_0_0" index="0" disallow="tram rail_urban rail rail_electric rail_fast ship" speed="6.55" length="9.11" shape="477.11,4357.07 474.62,4357.15 472.74,4358.01 471.49,4359.65 470.86,4362.05"/>
    </edge>
    <edge id=":109999867_1" function="internal">
        <lane id=":109999867_1_0" index="0" disallow="tram rail_urban rail rail_electric rail_fast ship" speed="8.33" length="14.46" shape="477.11,4357.07 462.74,4355.51"/>
    </edge>
    <edge id=":109999867_2" function="internal">
        <lane id=":109999867_2_0" index="0" disallow="tram rail_urban rail rail_electric rail_fast ship" speed="7.98" length="14.24" shape="477.11,4357.07 473.33,4356.10 470.78,4354.16 469.45,4351.23 469.37,4347.32"/>
    </edge>
    <edge id=":109999867_3" function="internal">
        <lane id=":109999867_3_0" index="0" disallow="tram rail_urban rail rail_electric rail_fast ship" speed="3.65" length="4.67" shape="477.11,4357.07 476.01,4356.15 475.70,4355.31 476.18,4354.56 477.46,4353.89"/>
    </edge>
    <edge id=":109999867_4" function="internal">
        <lane id=":109999867_4_0" index="0" disallow="tram rail_urban rail rail_electric rail_fast ship" speed="6.48" length="9.03" shape="472.54,4347.71 472.60,4350.18 473.44,4352.04 475.06,4353.28 477.46,4353.89"/>
    </edge>
    <edge id=":109999867_5" function="internal">
        <lane id=":109999867_5_0" index="0" disallow="tram rail_urban rail rail_electric rail_fast ship" speed="8.33" length="14.45" shape="472.54,4347.71 470.86,4362.05"/>
    </edge>
    <edge id=":109999867_6" function="internal">
        <lane id=":109999867_6_0" index="0" disallow="tram rail_urban rail rail_electric rail_fast ship" speed="8.05" length="14.25" shape="472.54,4347.71 471.54,4351.48 469.57,4354.03 466.64,4355.38 462.74,4355.51"/>
    </edge>
    <edge id=":109999867_7" function="internal">
        <lane id=":109999867_7_0" index="0" disallow="tram rail_urban rail rail_electric rail_fast ship" speed="3.65" length="4.67" shape="472.54,4347.71 471.61,4348.80 470.77,4349.10 470.02,4348.61 469.37,4347.32"/>
    </edge>
    <edge id=":109999867_8" function="internal">
        <lane id=":109999867_8_0" index="0" disallow="tram rail_urban rail rail_electric rail_fast ship" speed="6.57" length="9.13" shape="463.09,4352.33 465.58,4352.24 467.46,4351.38 468.72,4349.74 469.37,4347.32"/>
    </edge>
    <edge id=":109999867_9" function="internal">
        <lane id=":109999867_9_0" index="0" disallow="tram rail_urban rail rail_electric rail_fast ship" speed="8.33" length="14.46" shape="463.09,4352.33 477.46,4353.89"/>
    </edge>
    <edge id=":109999867_10" function="internal">
        <lane id=":109999867_10_0" index="0" disallow="tram rail_urban rail rail_electric rail_fast ship" speed="7.99" length="14.21" shape="463.09,4352.33 466.86,4353.29 469.42,4355.24 470.75,4358.16 470.86,4362.05"/>
    </edge>
    <edge id=":109999867_11" function="internal">
        <lane id=":109999867_11_0" index="0" disallow="tram rail_urban rail rail_electric rail_fast ship" speed="3.65" length="4.67" shape="463.09,4352.33 464.19,4353.25 464.51,4354.09 464.02,4354.84 462.74,4355.51"/>
    </edge>
    <edge id=":109999867_12" function="internal">
        <lane id=":109999867_12_0" index="0" disallow="tram rail_urban rail rail_electric rail_fast ship" speed="6.50" length="9.03" shape="467.68,4361.69 467.61,4359.21 466.76,4357.36 465.14,4356.12 462.74,4355.51"/>
    </edge>
    <edge id=":109999867_13" function="internal">
        <lane id=":109999867_13_0" index="0" disallow="tram rail_urban rail rail_electric rail_fast ship" speed="8.33" length="14.47" shape="467.68,4361.69 469.37,4347.32"/>
    </edge>
    <edge id=":109999867_14" function="internal">
        <lane id=":109999867_14_0" index="0" disallow="tram rail_urban rail rail_electric rail_fast ship" speed="8.03" length="14.25" shape="467.68,4361.69 468.67,4357.92 470.63,4355.36 473.56,4354.02 477.46,4353.89"/>
    </edge>
    <edge id=":109999867_15" function="internal">
        <lane id=":109999867_15_0" index="0" disallow="tram rail_urban rail rail_electric rail_fast ship" speed="3.65" length="4.67" shape="467.68,4361.69 468.61,4360.59 469.45,4360.28 470.20,4360.77 470.86,4362.05"/>
    </edge>
    <edge id=":111246654_0" function="internal">
        <lane id=":111246654_0_0" index="0" disallow="tram rail_urban rail rail_electric rail_fast ship" speed="3.65" length="4.67" shape="125.71,4356.23 125.27,4354.85 125.45,4353.98 126.26,4353.60 127.70,4353.72"/>
    </edge>
    <edge id=":111246664_0" function="internal">
        <lane id=":111246664_0_0" index="0" disallow="tram rail_urban rail rail_electric rail_fast ship" speed="6.68" length="9.57" shape="573.05,4368.81 570.59,4368.47 568.57,4369.09 567.00,4370.65 565.87,4373.17"/>
    </edge>
    <edge id=":111246664_1" function="internal">
        <lane id=":111246664_1_0" index="0" disallow="tram rail_urban rail rail_electric rail_fast ship" speed="8.33" length="14.72" shape="573.05,4368.81 569.48,4367.82 565.91,4367.03 562.31,4366.40 558.64,4365.93"/>
    </edge>
    <edge id=":111246664_2" function="internal">
        <lane id=":111246664_2_0" index="0" disallow="tram rail_urban rail rail_electric rail_fast ship" speed="3.65" length="4.67" shape="573.05,4368.81 572.13,4367.70 571.98,4366.82 572.60,4366.17 573.98,4365.75"/>
    </edge>
    <edge id=":111246664_3" function="internal">
        <lane id=":111246664_3_0" index="0" disallow="tram rail_urban rail rail_electric rail_fast ship" speed="8.33" length="15.32" shape="558.98,4362.74 562.75,4363.24 566.55,4363.91 570.32,4364.74 573.98,4365.75"/>
    </edge>
    <edge id=":111246664_4" function="internal">
        <lane id=":111246664_4_0" index="0" disallow="tram rail_urban rail rail_electric rail_fast ship" speed="7.71" length="14.95" shape="558.98,4362.74 563.06,4363.79 565.57,4365.88 566.51,4369.01 565.87,4373.17"/>
    </edge>
    <edge id=":111246664_5" function="internal">
        <lane id=":111246664_5_0" index="0" disallow="tram rail_urban rail rail_electric rail_fast ship" speed="3.65" length="4.67" shape="558.98,4362.74 560.09,4363.67 560.40,4364.51 559.92,4365.26 558.64,4365.93"/>
    </edge>
    <edge id=":111246664_6" function="internal">
        <lane id=":111246664_6_0" index="0" disallow="tram rail_urban rail rail_electric rail_fast ship" speed="6.14" length="9.06" shape="562.81,4372.24 563.19,4369.72 562.63,4367.83 561.11,4366.56 558.64,4365.93"/>
    </edge>
    <edge id=":111246664_7" function="internal">
        <lane id=":111246664_7_0" index="0" disallow="tram rail_urban rail rail_electric rail_fast ship" speed="8.14" length="14.73" shape="562.81,4372.24 564.54,4368.44 566.98,4366.09 570.12,4365.20 573.98,4365.75"/>
    </edge>
    <edge id=":111246664_8" function="internal">
        <lane id=":111246664_8_0" index="0" disallow="tram rail_urban rail rail_electric rail_fast ship" speed="3.65" length="4.67" shape="562.81,4372.24 563.92,4371.33 564.80,4371.18 565.45,4371.79 565.87,4373.17"/>
    </edge>
    <edge id=":111246672_0" function="internal">
        <lane id=":111246672_0_0" index="0" disallow="tram rail_urban rail rail_electric rail_fast ship" speed="8.33" length="12.13" shape="623.16,4382.44 619.92,4382.32 617.17,4383.11 614.90,4384.82 613.11,4387.46"/>
    </edge>
    <edge id=":111246672_1" function="internal">
        <lane id=":111246672_1_0" index="0" disallow="tram rail_urban rail rail_electric rail_fast ship" speed="8.33" length="16.42" shape="623.16,4382.44 619.24,4381.79 615.06,4381.05 610.91,4380.19 607.07,4379.18"/>
    </edge>
    <edge id=":111246672_2" function="internal">
        <lane id=":111246672_2_0" index="0" disallow="tram rail_urban rail rail_electric rail_fast ship" speed="7.59" length="15.38" shape="623.16,4382.44 618.97,4381.10 616.61,4378.81 616.10,4375.56 617.42,4371.36"/>
    </edge>
    <edge id=":111246672_3" function="internal">
        <lane id=":111246672_3_0" index="0" disallow="tram rail_urban rail rail_electric rail_fast ship" speed="3.65" length="4.67" shape="623.16,4382.44 622.11,4381.46 621.85,4380.60 622.38,4379.88 623.69,4379.29"/>
    </edge>
    <edge id=":111246672_4" function="internal">
        <lane id=":111246672_4_0" index="0" disallow="tram rail_urban rail rail_electric rail_fast ship" speed="5.99" length="9.08" shape="620.30,4372.74 619.52,4375.22 619.83,4377.14 621.22,4378.50 623.69,4379.29"/>
    </edge>
    <edge id=":111246672_5" function="internal">
        <lane id=":111246672_5_0" index="0" disallow="tram rail_urban rail rail_electric rail_fast ship" speed="8.33" length="16.38" shape="620.30,4372.74 613.11,4387.46"/>
    </edge>
    <edge id=":111246672_6" function="internal">
        <lane id=":111246672_6_0" index="0" disallow="tram rail_urban rail rail_electric rail_fast ship" speed="8.33" length="15.66" shape="620.30,4372.74 617.96,4375.81 614.55,4378.13 610.71,4379.37 607.07,4379.18"/>
    </edge>
    <edge id=":111246672_7" function="internal">
        <lane id=":111246672_7_0" index="0" disallow="tram rail_urban rail rail_electric rail_fast ship" speed="3.65" length="4.67" shape="620.30,4372.74 619.06,4373.48 618.17,4373.50 617.62,4372.79 617.42,4371.36"/>
    </edge>
    <edge id=":111246672_8" function="internal">
        <lane id=":111246672_8_0" index="0" disallow="tram rail_urban rail rail_electric rail_fast ship" speed="7.80" length="11.87" shape="607.76,4376.05 610.79,4376.49 613.41,4375.86 615.62,4374.15 617.42,4371.36"/>
    </edge>
    <edge id=":111246672_9" function="internal">