<?xml version="1.0" encoding="UTF-8"?>

<!-- generated on 2022-02-03 13:58:46 by Eclipse SUMO duarouter Version 1.11.0
<configuration xmlns:xsi="http://www.w3.org/2001/XMLSchema-instance" xsi:noNamespaceSchemaLocation="http://sumo.dlr.de/xsd/duarouterConfiguration.xsd">

    <input>
        <net-file value="osm.net.xml"/>
        <route-files value="osm.passenger.trips.xml"/>
    </input>

    <output>
        <output-file value="osm.passenger.trips.xml.tmp"/>
        <write-trips value="true"/>
    </output>

    <time>
        <begin value="0"/>
        <end value="3600"/>
    </time>

    <report>
        <no-warnings value="true"/>
        <ignore-errors value="true"/>
        <no-step-log value="true"/>
    </report>

</configuration>
-->

<routes xmlns:xsi="http://www.w3.org/2001/XMLSchema-instance" xsi:noNamespaceSchemaLocation="http://sumo.dlr.de/xsd/routes_file.xsd">
    <vType id="veh_passenger" vClass="passenger"/>
    <trip id="veh0" type="veh_passenger" depart="0.00" departLane="best" from="-345607727" to="-312590965"/>
    <trip id="veh1" type="veh_passenger" depart="12.89" departLane="best" from="29408065#2" to="27496690#0"/>
    <trip id="veh3" type="veh_passenger" depart="38.66" departLane="best" from="-915457925#0" to="-11818113#1"/>
    <trip id="veh4" type="veh_passenger" depart="51.55" departLane="best" from="-11627689" to="-29408065#0"/>
    <trip id="veh5" type="veh_passenger" depart="64.44" departLane="best" from="-27496690#1" to="19355403#6"/>
    <trip id="veh7" type="veh_passenger" depart="90.21" departLane="best" from="328178779" to="29317738#3"/>
    <trip id="veh8" type="veh_passenger" depart="103.10" departLane="best" from="-486972235#0" to="-24694123"/>
    <trip id="veh10" type="veh_passenger" depart="128.87" departLane="best" departSpeed="max" from="-15021019#3" to="-17384249#0"/>
    <trip id="veh11" type="veh_passenger" depart="141.76" departLane="best" from="391923088" to="23903578"/>
    <trip id="veh12" type="veh_passenger" depart="154.65" departLane="best" from="345607727" to="30341883#0"/>
    <trip id="veh14" type="veh_passenger" depart="180.42" departLane="best" from="390705309#1" to="23918493"/>
    <trip id="veh16" type="veh_passenger" depart="206.20" departLane="best" from="27496690#1" to="-12273115"/>
    <trip id="veh17" type="veh_passenger" depart="219.08" departLane="best" from="-29084716#2" to="-440803438"/>
    <trip id="veh18" type="veh_passenger" depart="231.97" departLane="best" from="-15021019#0" to="-31540126"/>
    <trip id="veh19" type="veh_passenger" depart="244.86" departLane="best" from="-155467734" to="-391923088"/>
    <trip id="veh20" type="veh_passenger" depart="257.74" departLane="best" from="23918356" to="-83687789"/>
    <trip id="veh21" type="veh_passenger" depart="270.63" departLane="best" from="-681503599" to="-30185071"/>
    <trip id="veh22" type="veh_passenger" depart="283.52" departLane="best" from="-317130966" to="72147000#1"/>
    <trip id="veh23" type="veh_passenger" depart="296.41" departLane="best" from="24218438#1" to="23918286#2"/>
    <trip id="veh24" type="veh_passenger" depart="309.29" departLane="best" from="-23918286#1" to="30185071"/>
    <trip id="veh25" type="veh_passenger" depart="322.18" departLane="best" departSpeed="max" from="-23903578" to="-96306832#0"/>
    <trip id="veh26" type="veh_passenger" depart="335.07" departLane="best" from="95771430" to="24693823#1"/>
    <trip id="veh27" type="veh_passenger" depart="347.95" departLane="best" from="17384248" to="284588825"/>
    <trip id="veh29" type="veh_passenger" depart="373.73" departLane="best" from="-29317738#0" to="-11818113#2"/>
    <trip id="veh30" type="veh_passenger" depart="386.62" departLane="best" departSpeed="max" from="-42992977#1" to="-369855809"/>
    <trip id="veh34" type="veh_passenger" depart="438.16" departLane="best" from="-312590965" to="-31540126"/>
    <trip id="veh37" type="veh_passenger" depart="476.83" departLane="best" from="96311855#1" to="155542976"/>
    <trip id="veh38" type="veh_passenger" depart="489.71" departLane="best" departSpeed="max" from="-15021019#3" to="-124977959#0"/>
    <trip id="veh40" type="veh_passenger" depart="515.49" departLane="best" from="-124977959#4" to="-96306832#1"/>
    <trip id="veh41" type="veh_passenger" depart="528.37" departLane="best" from="96306840#1" to="17384256"/>
    <trip id="veh45" type="veh_passenger" depart="579.92" departLane="best" from="-317130966" to="24693823#1"/>
    <trip id="veh46" type="veh_passenger" depart="592.81" departLane="best" departSpeed="max" from="-155542976" to="11818113#2"/>
    <trip id="veh48" type="veh_passenger" depart="618.59" departLane="best" from="486972235#1" to="-35046089#0"/>
    <trip id="veh50" type="veh_passenger" depart="644.36" departLane="best" from="-392719989" to="24693823#0"/>
    <trip id="veh53" type="veh_passenger" depart="683.02" departLane="best" departSpeed="max" from="314492923" to="17384256"/>
    <trip id="veh56" type="veh_passenger" depart="721.68" departLane="best" from="549336711" to="420011938"/>
    <trip id="veh57" type="veh_passenger" depart="734.57" departLane="best" departSpeed="max" from="-399282763" to="-13215492#2"/>
    <trip id="veh58" type="veh_passenger" depart="747.46" departLane="best" from="549336711" to="770677245"/>
    <trip id="veh59" type="veh_passenger" depart="760.34" departLane="best" from="-143183283#0" to="318209631#1"/>
    <trip id="veh61" type="veh_passenger" depart="786.12" departLane="best" from="115597416#1" to="17457033#4"/>
    <trip id="veh62" type="veh_passenger" depart="799.01" departLane="best" from="-312590965" to="549336711"/>
    <trip id="veh63" type="veh_passenger" depart="811.89" departLane="best" from="96306840#1" to="24702000#0"/>
    <trip id="veh65" type="veh_passenger" depart="837.67" departLane="best" from="-16893609" to="-314492923"/>
    <trip id="veh66" type="veh_passenger" depart="850.55" departLane="best" from="-46191510#1" to="19355403#6"/>
    <trip id="veh67" type="veh_passenger" depart="863.44" departLane="best" from="-29317738#1" to="-307076768#1"/>
    <trip id="veh68" type="veh_passenger" depart="876.33" departLane="best" from="-143183286" to="24219491#2"/>
    <trip id="veh69" type="veh_passenger" depart="889.22" departLane="best" from="393505712#0" to="-15021019#1"/>
    <trip id="veh70" type="veh_passenger" depart="902.10" departLane="best" departSpeed="max" from="80152409" to="186632793#3"/>
    <trip id="veh71" type="veh_passenger" depart="914.99" departLane="best" from="115597416#0" to="378330769#2"/>
    <trip id="veh72" type="veh_passenger" depart="927.88" departLane="best" from="-155364235" to="11818113#0"/>
    <trip id="veh74" type="veh_passenger" depart="953.65" departLane="best" from="915457925#0" to="-186198379"/>
    <trip id="veh75" type="veh_passenger" depart="966.54" departLane="best" from="-770677246" to="-770677236#0"/>
    <trip id="veh76" type="veh_passenger" depart="979.43" departLane="best" from="393505712#0" to="-31540126"/>
    <trip id="veh77" type="veh_passenger" depart="992.31" departLane="best" from="-915457925#0" to="-391923088"/>
    <trip id="veh79" type="veh_passenger" depart="1018.09" departLane="best" from="-96306841" to="46191489#0"/>
    <trip id="veh80" type="veh_passenger" depart="1030.98" departLane="best" from="155364235" to="-124977959#2"/>
    <trip id="veh81" type="veh_passenger" depart="1043.86" departLane="best" from="96311855#1" to="420011938"/>
    <trip id="veh82" type="veh_passenger" depart="1056.75" departLane="best" departSpeed="max" from="899238845" to="718174275#4"/>
    <trip id="veh84" type="veh_passenger" depart="1082.52" departLane="best" from="-770677245" to="-143183283#0"/>
    <trip id="veh86" type="veh_passenger" depart="1108.30" departLane="best" from="-312590965" to="378330769#0"/>
    <trip id="veh88" type="veh_passenger" depart="1134.07" departLane="best" from="84658163" to="96306840#1"/>
    <trip id="veh89" type="veh_passenger" depart="1146.96" departLane="best" from="17384248" to="30182236"/>
    <trip id="veh90" type="veh_passenger" depart="1159.85" departLane="best" from="-194163682" to="-46191489#1"/>
    <trip id="veh93" type="veh_passenger" depart="1198.51" departLane="best" from="-124977959#0" to="19355403#3"/>
    <trip id="veh94" type="veh_passenger" depart="1211.40" departLane="best" from="124977959#2" to="42992977#1"/>
    <trip id="veh96" type="veh_passenger" depart="1237.17" departLane="best" from="-15021019#0" to="-29084716#2"/>
    <trip id="veh97" type="veh_passenger" depart="1250.06" departLane="best" from="186632793#0" to="27107042"/>
    <trip id="veh98" type="veh_passenger" depart="1262.94" departLane="best" from="-29317738#3" to="-23389835#0"/>
    <trip id="veh100" type="veh_passenger" depart="1288.72" departLane="best" from="186522910" to="23918493"/>
    <trip id="veh101" type="veh_passenger" depart="1301.61" departLane="best" from="-80152409" to="19355403#3"/>
    <trip id="veh103" type="veh_passenger" depart="1327.38" departLane="best" from="-24702000#0" to="30182079#1"/>
    <trip id="veh105" type="veh_passenger" depart="1353.15" departLane="best" departSpeed="max" from="24694123" to="-46191496#0"/>
    <trip id="veh106" type="veh_passenger" depart="1366.04" departLane="best" departSpeed="max" from="-42992977#1" to="307076768#1"/>
    <trip id="veh107" type="veh_passenger" depart="1378.93" departLane="best" from="-143183286" to="124977959#3"/>
    <trip id="veh108" type="veh_passenger" depart="1391.82" departLane="best" from="96311855#1" to="96306840#1"/>
    <trip id="veh112" type="veh_passenger" depart="1443.37" departLane="best" from="390709999" to="29408064"/>
    <trip id="veh117" type="veh_passenger" depart="1507.80" departLane="best" departSpeed="max" from="-155542976" to="186198379"/>
    <trip id="veh118" type="veh_passenger" depart="1520.69" departLane="best" from="-318209631#2" to="23903578"/>
    <trip id="veh119" type="veh_passenger" depart="1533.58" departLane="best" from="29084716#1" to="-29408065#3"/>
    <trip id="veh120" type="veh_passenger" depart="1546.46" departLane="best" from="23918286#2" to="-35046089#1"/>
    <trip id="veh121" type="veh_passenger" depart="1559.35" departLane="best" from="391923088" to="-16893609"/>
    <trip id="veh123" type="veh_passenger" depart="1585.12" departLane="best" from="23918356" to="-34569965"/>
    <trip id="veh124" type="veh_passenger" depart="1598.01" departLane="best" from="29408070" to="186198379"/>
    <trip id="veh126" type="veh_passenger" depart="1623.79" departLane="best" from="390709999" to="19355403#2"/>
    <trip id="veh128" type="veh_passenger" depart="1649.56" departLane="best" from="317130966" to="46191489#0"/>
    <trip id="veh130" type="veh_passenger" depart="1675.33" departLane="best" from="-30182236" to="-186632793#0"/>
    <trip id="veh131" type="veh_passenger" depart="1688.22" departLane="best" departSpeed="max" from="314492923" to="61383017#1"/>
    <trip id="veh133" type="veh_passenger" depart="1714.00" departLane="best" from="46191489#0" to="915457925#0"/>
    <trip id="veh134" type="veh_passenger" depart="1726.88" departLane="best" from="35046089#0" to="61383017#0"/>
    <trip id="veh135" type="veh_passenger" depart="1739.77" departLane="best" from="-11627689" to="30341883#3"/>
    <trip id="veh137" type="veh_passenger" depart="1765.55" departLane="best" from="32252194" to="46191510#0"/>
    <trip id="veh138" type="veh_passenger" depart="1778.43" departLane="best" from="35046089#0" to="-369711987"/>
    <trip id="veh139" type="veh_passenger" depart="1791.32" departLane="best" departSpeed="max" from="31540126" to="-186632793#3"/>
    <trip id="veh140" type="veh_passenger" depart="1804.21" departLane="best" from="46191510#0" to="440803438"/>
    <trip id="veh142" type="veh_passenger" depart="1829.98" departLane="best" from="317130966" to="-314492923"/>
    <trip id="veh143" type="veh_passenger" depart="1842.87" departLane="best" from="-11627689" to="-29317738#3"/>
    <trip id="veh144" type="veh_passenger" depart="1855.76" departLane="best" departSpeed="max" from="-42992977#1" to="46191510#0"/>
    <trip id="veh146" type="veh_passenger" depart="1881.53" departLane="best" from="23918490#1" to="102809770#1"/>
    <trip id="veh151" type="veh_passenger" depart="1945.97" departLane="best" departSpeed="max" from="-155542976" to="11818113#2"/>
    <trip id="veh152" type="veh_passenger" depart="1958.85" departLane="best" from="29408063#0" to="-549336714"/>
    <trip id="veh153" type="veh_passenger" depart="1971.74" departLane="best" from="186632793#4" to="155542976"/>
    <trip id="veh156" type="veh_passenger" depart="2010.40" departLane="best" from="15021023" to="30182236"/>
    <trip id="veh158" type="veh_passenger" depart="2036.18" departLane="best" from="24693823#0" to="-697574936#1"/>
    <trip id="veh160" type="veh_passenger" depart="2061.95" departLane="best" from="-770677246" to="-440803438"/>
    <trip id="veh161" type="veh_passenger" depart="2074.84" departLane="best" from="-17384249#0" to="115597416#1"/>
    <trip id="veh162" type="veh_passenger" depart="2087.72" departLane="best" departSpeed="max" from="80152409" to="27496690#0"/>
    <trip id="veh163" type="veh_passenger" depart="2100.61" departLane="best" departSpeed="max" from="-399282763" to="17457033#3"/>
    <trip id="veh164" type="veh_passenger" depart="2113.50" departLane="best" from="-102809770#0" to="-411014865"/>
    <trip id="veh165" type="veh_passenger" depart="2126.39" departLane="best" departSpeed="max" from="-96306832#2" to="19355403#1"/>
    <trip id="veh166" type="veh_passenger" depart="2139.27" departLane="best" from="24219491#0" to="13215492#2"/>
    <trip id="veh169" type="veh_passenger" depart="2177.94" departLane="best" from="317130966" to="-24715906#1"/>
    <trip id="veh170" type="veh_passenger" depart="2190.82" departLane="best" from="-15021019#2" to="155542976"/>
    <trip id="veh173" type="veh_passenger" depart="2229.48" departLane="best" departSpeed="max" from="24694123" to="-314492923"/>
    <trip id="veh174" type="veh_passenger" depart="2242.37" departLane="best" from="-24694092#1" to="-11627689"/>
    <trip id="veh175" type="veh_passenger" depart="2255.26" departLane="best" from="-29408065#3" to="143183286"/>
    <trip id="veh178" type="veh_passenger" depart="2293.92" departLane="best" from="-24219312" to="29317738#2"/>
    <trip id="veh179" type="veh_passenger" depart="2306.81" departLane="best" from="12136260#1" to="-31540126"/>
    <trip id="veh181" type="veh_passenger" depart="2332.58" departLane="best" departSpeed="max" from="30249754" to="345607727"/>
    <trip id="veh184" type="veh_passenger" depart="2371.24" departLane="best" from="143183283#0" to="-124977959#2"/>
    <trip id="veh186" type="veh_passenger" depart="2397.02" departLane="best" from="24694092#1" to="96306832#2"/>
    <trip id="veh187" type="veh_passenger" depart="2409.90" departLane="best" from="186632793#0" to="770679467#0"/>
    <trip id="veh189" type="veh_passenger" depart="2435.68" departLane="best" from="29317738#0" to="155542976"/>
    <trip id="veh190" type="veh_passenger" depart="2448.57" departLane="best" from="390709999" to="17457033#3"/>
    <trip id="veh192" type="veh_passenger" depart="2474.34" departLane="best" from="-297225622" to="24221021"/>
    <trip id="veh194" type="veh_passenger" depart="2500.11" departLane="best" from="-143183287" to="-411014865"/>
    <trip id="veh196" type="veh_passenger" depart="2525.89" departLane="best" departSpeed="max" from="15021030" to="-23918490#0"/>
    <trip id="veh201" type="veh_passenger" depart="2590.33" departLane="best" from="393505712#0" to="32252194"/>
    <trip id="veh203" type="veh_passenger" depart="2616.10" departLane="best" from="-64595865" to="307076768#2"/>
    <trip id="veh204" type="veh_passenger" depart="2628.99" departLane="best" from="392719989" to="770679467#1"/>
    <trip id="veh206" type="veh_passenger" depart="2654.76" departLane="best" departSpeed="max" from="15021030" to="23903578"/>
    <trip id="veh207" type="veh_passenger" depart="2667.65" departLane="best" from="-27496690#1" to="-307076768#1"/>
    <trip id="veh208" type="veh_passenger" depart="2680.54" departLane="best" departSpeed="max" from="-96306832#2" to="-11818113#0"/>
    <trip id="veh209" type="veh_passenger" depart="2693.42" departLane="best" from="-46191496#3" to="27496690#1"/>
    <trip id="veh213" type="veh_passenger" depart="2744.97" departLane="best" from="-770677236#1" to="186632793#0"/>
    <trip id="veh214" type="veh_passenger" depart="2757.86" departLane="best" from="-11627689" to="24694092#1"/>
    <trip id="veh215" type="veh_passenger" depart="2770.75" departLane="best" departSpeed="max" from="-17384256" to="13215492#0"/>
    <trip id="veh217" type="veh_passenger" depart="2796.52" departLane="best" from="-24715906#2" to="-681503599"/>
    <trip id="veh221" type="veh_passenger" depart="2848.07" departLane="best" from="24219313" to="369711987"/>
    <trip id="veh223" type="veh_passenger" depart="2873.84" departLane="best" departSpeed="max" from="83687789" to="-29408065#0"/>
    <trip id="veh225" type="veh_passenger" depart="2899.62" departLane="best" from="26626390" to="32252194"/>
    <trip id="veh226" type="veh_passenger" depart="2912.50" departLane="best" departSpeed="max" from="-23903578" to="23918286#0"/>
    <trip id="veh228" type="veh_passenger" depart="2938.28" departLane="best" departSpeed="max" from="-155542976" to="-11627689"/>
    <trip id="veh231" type="veh_passenger" depart="2976.94" departLane="best" from="-155467734" to="35046089#0"/>
    <trip id="veh233" type="veh_passenger" depart="3002.72" departLane="best" from="-16893609" to="96306832#1"/>
    <trip id="veh234" type="veh_passenger" depart="3015.60" departLane="best" departSpeed="max" from="314492923" to="-770677245"/>
    <trip id="veh236" type="veh_passenger" depart="3041.38" departLane="best" from="124977959#3" to="-770677236#1"/>
    <trip id="veh239" type="veh_passenger" depart="3080.04" departLane="best" from="23918356" to="399282763"/>
    <trip id="veh242" type="veh_passenger" depart="3118.70" departLane="best" from="-318209631#1" to="391923088"/>
    <trip id="veh243" type="veh_passenger" depart="3131.59" departLane="best" from="-318209631#0" to="42992977#1"/>
    <trip id="veh244" type="veh_passenger" depart="3144.47" departLane="best" from="390709999" to="-155467732#0"/>
    <trip id="veh245" type="veh_passenger" depart="3157.36" departLane="best" from="56139355#0" to="-31540126"/>
    <trip id="veh249" type="veh_passenger" depart="3208.91" departLane="best" from="27107042" to="-391923087"/>
    <trip id="veh250" type="veh_passenger" depart="3221.80" departLane="best" departSpeed="max" from="-102809770#1" to="770677245"/>
    <trip id="veh251" type="veh_passenger" depart="3234.68" departLane="best" departSpeed="max" from="-15021019#3" to="30182236"/>
    <trip id="veh252" type="veh_passenger" depart="3247.57" departLane="best" from="118607895" to="317130966"/>
    <trip id="veh253" type="veh_passenger" depart="3260.46" departLane="best" from="118607900" to="390709999"/>
    <trip id="veh254" type="veh_passenger" depart="3273.35" departLane="best" from="17457033#4" to="143183286"/>
    <trip id="veh256" type="veh_passenger" depart="3299.12" departLane="best" from="30182237" to="-697574936#1"/>
    <trip id="veh257" type="veh_passenger" depart="3312.01" departLane="best" from="27496690#0" to="-390705309#0"/>
    <trip id="veh259" type="veh_passenger" depart="3337.78" departLane="best" from="15021019#1" to="318209631#2"/>
    <trip id="veh261" type="veh_passenger" depart="3363.56" departLane="best" from="11818113#3" to="30182236"/>
    <trip id="veh263" type="veh_passenger" depart="3389.33" departLane="best" from="-369711987" to="-186632793#0"/>
    <trip id="veh264" type="veh_passenger" depart="3402.22" departLane="best" from="-24219312" to="-314492923"/>
    <trip id="veh266" type="veh_passenger" depart="3427.99" departLane="best" from="15021019#0" to="-390709999"/>
    <trip id="veh269" type="veh_passenger" depart="3466.65" departLane="best" from="486972235#0" to="186632793#4"/>
    <trip id="veh271" type="veh_passenger" depart="3492.43" departLane="best" from="-23918359" to="-124977959#2"/>
    <trip id="veh272" type="veh_passenger" depart="3505.32" departLane="best" from="378330769#0" to="102809770#1"/>
    <trip id="veh273" type="veh_passenger" depart="3518.20" departLane="best" from="-143183287" to="24219491#1"/>
    <trip id="veh274" type="veh_passenger" depart="3531.09" departLane="best" from="-12273115" to="-24693823#1"/>
    <trip id="veh278" type="veh_passenger" depart="3582.64" departLane="best" departSpeed="max" from="31540126" to="-314492923"/>
    <trip id="veh279" type="veh_passenger" depart="3595.53" departLane="best" from="-96306841" to="46191489#0"/>
</routes>
