<?xml version="1.0" encoding="UTF-8"?>

<!-- generated on 2022-02-07 13:31:03 by Eclipse SUMO duarouter Version 1.11.0
<configuration xmlns:xsi="http://www.w3.org/2001/XMLSchema-instance" xsi:noNamespaceSchemaLocation="http://sumo.dlr.de/xsd/duarouterConfiguration.xsd">

    <input>
        <net-file value="osm.net.xml"/>
        <route-files value="osm.passenger.trips.xml"/>
    </input>

    <output>
        <output-file value="osm.passenger.trips.xml.tmp"/>
        <write-trips value="true"/>
    </output>

    <time>
        <begin value="0"/>
        <end value="3600"/>
    </time>

    <report>
        <no-warnings value="true"/>
        <ignore-errors value="true"/>
        <no-step-log value="true"/>
    </report>

</configuration>
-->

<routes xmlns:xsi="http://www.w3.org/2001/XMLSchema-instance" xsi:noNamespaceSchemaLocation="http://sumo.dlr.de/xsd/routes_file.xsd">
    <vType id="veh_passenger" vClass="passenger"/>
    <trip id="veh0" type="veh_passenger" depart="0.00" departLane="best" from="-345607727" to="-312590965"/>
    <trip id="veh1" type="veh_passenger" depart="1.29" departLane="best" from="29408065#2" to="27496690#0"/>
    <trip id="veh3" type="veh_passenger" depart="3.87" departLane="best" from="-915457925#0" to="-11818113#1"/>
    <trip id="veh4" type="veh_passenger" depart="5.15" departLane="best" from="-11627689" to="-29408065#0"/>
    <trip id="veh5" type="veh_passenger" depart="6.44" departLane="best" from="-27496690#1" to="19355403#6"/>
    <trip id="veh7" type="veh_passenger" depart="9.02" departLane="best" from="328178779" to="29317738#3"/>
    <trip id="veh8" type="veh_passenger" depart="10.31" departLane="best" from="-486972235#0" to="-24694123"/>
    <trip id="veh10" type="veh_passenger" depart="12.89" departLane="best" departSpeed="max" from="-15021019#3" to="-17384249#0"/>
    <trip id="veh11" type="veh_passenger" depart="14.18" departLane="best" from="391923088" to="23903578"/>
    <trip id="veh12" type="veh_passenger" depart="15.46" departLane="best" from="345607727" to="30341883#0"/>
    <trip id="veh14" type="veh_passenger" depart="18.04" departLane="best" from="390705309#1" to="23918493"/>
    <trip id="veh16" type="veh_passenger" depart="20.62" departLane="best" from="27496690#1" to="-12273115"/>
    <trip id="veh17" type="veh_passenger" depart="21.91" departLane="best" from="-29084716#2" to="-440803438"/>
    <trip id="veh18" type="veh_passenger" depart="23.20" departLane="best" from="-15021019#0" to="-31540126"/>
    <trip id="veh19" type="veh_passenger" depart="24.49" departLane="best" from="-155467734" to="-391923088"/>
    <trip id="veh20" type="veh_passenger" depart="25.77" departLane="best" from="23918356" to="-83687789"/>
    <trip id="veh21" type="veh_passenger" depart="27.06" departLane="best" from="-681503599" to="-30185071"/>
    <trip id="veh22" type="veh_passenger" depart="28.35" departLane="best" from="-317130966" to="72147000#1"/>
    <trip id="veh23" type="veh_passenger" depart="29.64" departLane="best" from="24218438#1" to="23918286#2"/>
    <trip id="veh24" type="veh_passenger" depart="30.93" departLane="best" from="-23918286#1" to="30185071"/>
    <trip id="veh25" type="veh_passenger" depart="32.22" departLane="best" departSpeed="max" from="-23903578" to="-96306832#0"/>
    <trip id="veh26" type="veh_passenger" depart="33.51" departLane="best" from="95771430" to="24693823#1"/>
    <trip id="veh27" type="veh_passenger" depart="34.80" departLane="best" from="17384248" to="284588825"/>
    <trip id="veh29" type="veh_passenger" depart="37.37" departLane="best" from="-29317738#0" to="-11818113#2"/>
    <trip id="veh30" type="veh_passenger" depart="38.66" departLane="best" departSpeed="max" from="-42992977#1" to="-369855809"/>
    <trip id="veh34" type="veh_passenger" depart="43.82" departLane="best" from="-312590965" to="-31540126"/>
    <trip id="veh37" type="veh_passenger" depart="47.68" departLane="best" from="96311855#1" to="155542976"/>
    <trip id="veh38" type="veh_passenger" depart="48.97" departLane="best" departSpeed="max" from="-15021019#3" to="-124977959#0"/>
    <trip id="veh40" type="veh_passenger" depart="51.55" departLane="best" from="-124977959#4" to="-96306832#1"/>
    <trip id="veh41" type="veh_passenger" depart="52.84" departLane="best" from="96306840#1" to="17384256"/>
    <trip id="veh45" type="veh_passenger" depart="57.99" departLane="best" from="-317130966" to="24693823#1"/>
    <trip id="veh46" type="veh_passenger" depart="59.28" departLane="best" departSpeed="max" from="-155542976" to="11818113#2"/>
    <trip id="veh48" type="veh_passenger" depart="61.86" departLane="best" from="486972235#1" to="-35046089#0"/>
    <trip id="veh50" type="veh_passenger" depart="64.44" departLane="best" from="-392719989" to="24693823#0"/>
    <trip id="veh53" type="veh_passenger" depart="68.30" departLane="best" departSpeed="max" from="314492923" to="17384256"/>
    <trip id="veh56" type="veh_passenger" depart="72.17" departLane="best" from="549336711" to="420011938"/>
    <trip id="veh57" type="veh_passenger" depart="73.46" departLane="best" departSpeed="max" from="-399282763" to="-13215492#2"/>
    <trip id="veh58" type="veh_passenger" depart="74.75" departLane="best" from="549336711" to="770677245"/>
    <trip id="veh59" type="veh_passenger" depart="76.03" departLane="best" from="-143183283#0" to="318209631#1"/>
    <trip id="veh61" type="veh_passenger" depart="78.61" departLane="best" from="115597416#1" to="17457033#4"/>
    <trip id="veh62" type="veh_passenger" depart="79.90" departLane="best" from="-312590965" to="549336711"/>
    <trip id="veh63" type="veh_passenger" depart="81.19" departLane="best" from="96306840#1" to="24702000#0"/>
    <trip id="veh65" type="veh_passenger" depart="83.77" departLane="best" from="-16893609" to="-314492923"/>
    <trip id="veh66" type="veh_passenger" depart="85.06" departLane="best" from="-46191510#1" to="19355403#6"/>
    <trip id="veh67" type="veh_passenger" depart="86.34" departLane="best" from="-29317738#1" to="-307076768#1"/>
    <trip id="veh68" type="veh_passenger" depart="87.63" departLane="best" from="-143183286" to="24219491#2"/>
    <trip id="veh69" type="veh_passenger" depart="88.92" departLane="best" from="393505712#0" to="-15021019#1"/>
    <trip id="veh70" type="veh_passenger" depart="90.21" departLane="best" departSpeed="max" from="80152409" to="186632793#3"/>
    <trip id="veh71" type="veh_passenger" depart="91.50" departLane="best" from="115597416#0" to="378330769#2"/>
    <trip id="veh72" type="veh_passenger" depart="92.79" departLane="best" from="-155364235" to="11818113#0"/>
    <trip id="veh74" type="veh_passenger" depart="95.37" departLane="best" from="915457925#0" to="-186198379"/>
    <trip id="veh75" type="veh_passenger" depart="96.65" departLane="best" from="-770677246" to="-770677236#0"/>
    <trip id="veh76" type="veh_passenger" depart="97.94" departLane="best" from="393505712#0" to="-31540126"/>
    <trip id="veh77" type="veh_passenger" depart="99.23" departLane="best" from="-915457925#0" to="-391923088"/>
    <trip id="veh79" type="veh_passenger" depart="101.81" departLane="best" from="-96306841" to="46191489#0"/>
    <trip id="veh80" type="veh_passenger" depart="103.10" departLane="best" from="155364235" to="-124977959#2"/>
    <trip id="veh81" type="veh_passenger" depart="104.39" departLane="best" from="96311855#1" to="420011938"/>
    <trip id="veh82" type="veh_passenger" depart="105.67" departLane="best" departSpeed="max" from="899238845" to="718174275#4"/>
    <trip id="veh84" type="veh_passenger" depart="108.25" departLane="best" from="-770677245" to="-143183283#0"/>
    <trip id="veh86" type="veh_passenger" depart="110.83" departLane="best" from="-312590965" to="378330769#0"/>
    <trip id="veh88" type="veh_passenger" depart="113.41" departLane="best" from="84658163" to="96306840#1"/>
    <trip id="veh89" type="veh_passenger" depart="114.70" departLane="best" from="17384248" to="30182236"/>
    <trip id="veh90" type="veh_passenger" depart="115.98" departLane="best" from="-194163682" to="-46191489#1"/>
    <trip id="veh93" type="veh_passenger" depart="119.85" departLane="best" from="-124977959#0" to="19355403#3"/>
    <trip id="veh94" type="veh_passenger" depart="121.14" departLane="best" from="124977959#2" to="42992977#1"/>
    <trip id="veh96" type="veh_passenger" depart="123.72" departLane="best" from="-15021019#0" to="-29084716#2"/>
    <trip id="veh97" type="veh_passenger" depart="125.01" departLane="best" from="186632793#0" to="27107042"/>
    <trip id="veh98" type="veh_passenger" depart="126.29" departLane="best" from="-29317738#3" to="-23389835#0"/>
    <trip id="veh100" type="veh_passenger" depart="128.87" departLane="best" from="186522910" to="23918493"/>
    <trip id="veh101" type="veh_passenger" depart="130.16" departLane="best" from="-80152409" to="19355403#3"/>
    <trip id="veh103" type="veh_passenger" depart="132.74" departLane="best" from="-24702000#0" to="30182079#1"/>
    <trip id="veh105" type="veh_passenger" depart="135.32" departLane="best" departSpeed="max" from="24694123" to="-46191496#0"/>
    <trip id="veh106" type="veh_passenger" depart="136.60" departLane="best" departSpeed="max" from="-42992977#1" to="307076768#1"/>
    <trip id="veh107" type="veh_passenger" depart="137.89" departLane="best" from="-143183286" to="124977959#3"/>
    <trip id="veh108" type="veh_passenger" depart="139.18" departLane="best" from="96311855#1" to="96306840#1"/>
    <trip id="veh112" type="veh_passenger" depart="144.34" departLane="best" from="390709999" to="29408064"/>
    <trip id="veh117" type="veh_passenger" depart="150.78" departLane="best" departSpeed="max" from="-155542976" to="186198379"/>
    <trip id="veh118" type="veh_passenger" depart="152.07" departLane="best" from="-318209631#2" to="23903578"/>
    <trip id="veh119" type="veh_passenger" depart="153.36" departLane="best" from="29084716#1" to="-29408065#3"/>
    <trip id="veh120" type="veh_passenger" depart="154.65" departLane="best" from="23918286#2" to="-35046089#1"/>
    <trip id="veh121" type="veh_passenger" depart="155.93" departLane="best" from="391923088" to="-16893609"/>
    <trip id="veh123" type="veh_passenger" depart="158.51" departLane="best" from="23918356" to="-34569965"/>
    <trip id="veh124" type="veh_passenger" depart="159.80" departLane="best" from="29408070" to="186198379"/>
    <trip id="veh126" type="veh_passenger" depart="162.38" departLane="best" from="390709999" to="19355403#2"/>
    <trip id="veh128" type="veh_passenger" depart="164.96" departLane="best" from="317130966" to="46191489#0"/>
    <trip id="veh130" type="veh_passenger" depart="167.53" departLane="best" from="-30182236" to="-186632793#0"/>
    <trip id="veh131" type="veh_passenger" depart="168.82" departLane="best" departSpeed="max" from="314492923" to="61383017#1"/>
    <trip id="veh133" type="veh_passenger" depart="171.40" departLane="best" from="46191489#0" to="915457925#0"/>
    <trip id="veh134" type="veh_passenger" depart="172.69" departLane="best" from="35046089#0" to="61383017#0"/>
    <trip id="veh135" type="veh_passenger" depart="173.98" departLane="best" from="-11627689" to="30341883#3"/>
    <trip id="veh137" type="veh_passenger" depart="176.55" departLane="best" from="32252194" to="46191510#0"/>
    <trip id="veh138" type="veh_passenger" depart="177.84" departLane="best" from="35046089#0" to="-369711987"/>
    <trip id="veh139" type="veh_passenger" depart="179.13" departLane="best" departSpeed="max" from="31540126" to="-186632793#3"/>
    <trip id="veh140" type="veh_passenger" depart="180.42" departLane="best" from="46191510#0" to="440803438"/>
    <trip id="veh142" type="veh_passenger" depart="183.00" departLane="best" from="317130966" to="-314492923"/>
    <trip id="veh143" type="veh_passenger" depart="184.29" departLane="best" from="-11627689" to="-29317738#3"/>
    <trip id="veh144" type="veh_passenger" depart="185.58" departLane="best" departSpeed="max" from="-42992977#1" to="46191510#0"/>
    <trip id="veh146" type="veh_passenger" depart="188.15" departLane="best" from="23918490#1" to="102809770#1"/>
    <trip id="veh151" type="veh_passenger" depart="194.60" departLane="best" departSpeed="max" from="-155542976" to="11818113#2"/>
    <trip id="veh152" type="veh_passenger" depart="195.89" departLane="best" from="29408063#0" to="-549336714"/>
    <trip id="veh153" type="veh_passenger" depart="197.17" departLane="best" from="186632793#4" to="155542976"/>
    <trip id="veh156" type="veh_passenger" depart="201.04" departLane="best" from="15021023" to="30182236"/>
    <trip id="veh158" type="veh_passenger" depart="203.62" departLane="best" from="24693823#0" to="-697574936#1"/>
    <trip id="veh160" type="veh_passenger" depart="206.20" departLane="best" from="-770677246" to="-440803438"/>
    <trip id="veh161" type="veh_passenger" depart="207.48" departLane="best" from="-17384249#0" to="115597416#1"/>
    <trip id="veh162" type="veh_passenger" depart="208.77" departLane="best" departSpeed="max" from="80152409" to="27496690#0"/>
    <trip id="veh163" type="veh_passenger" depart="210.06" departLane="best" departSpeed="max" from="-399282763" to="17457033#3"/>
    <trip id="veh164" type="veh_passenger" depart="211.35" departLane="best" from="-102809770#0" to="-411014865"/>
    <trip id="veh165" type="veh_passenger" depart="212.64" departLane="best" departSpeed="max" from="-96306832#2" to="19355403#1"/>
    <trip id="veh166" type="veh_passenger" depart="213.93" departLane="best" from="24219491#0" to="13215492#2"/>
    <trip id="veh169" type="veh_passenger" depart="217.79" departLane="best" from="317130966" to="-24715906#1"/>
    <trip id="veh170" type="veh_passenger" depart="219.08" departLane="best" from="-15021019#2" to="155542976"/>
    <trip id="veh173" type="veh_passenger" depart="222.95" departLane="best" departSpeed="max" from="24694123" to="-314492923"/>
    <trip id="veh174" type="veh_passenger" depart="224.24" departLane="best" from="-24694092#1" to="-11627689"/>
    <trip id="veh175" type="veh_passenger" depart="225.53" departLane="best" from="-29408065#3" to="143183286"/>
    <trip id="veh178" type="veh_passenger" depart="229.39" departLane="best" from="-24219312" to="29317738#2"/>
    <trip id="veh179" type="veh_passenger" depart="230.68" departLane="best" from="12136260#1" to="-31540126"/>
    <trip id="veh181" type="veh_passenger" depart="233.26" departLane="best" departSpeed="max" from="30249754" to="345607727"/>
    <trip id="veh184" type="veh_passenger" depart="237.12" departLane="best" from="143183283#0" to="-124977959#2"/>
    <trip id="veh186" type="veh_passenger" depart="239.70" departLane="best" from="24694092#1" to="96306832#2"/>
    <trip id="veh187" type="veh_passenger" depart="240.99" departLane="best" from="186632793#0" to="770679467#0"/>
    <trip id="veh189" type="veh_passenger" depart="243.57" departLane="best" from="29317738#0" to="155542976"/>
    <trip id="veh190" type="veh_passenger" depart="244.86" departLane="best" from="390709999" to="17457033#3"/>
    <trip id="veh192" type="veh_passenger" depart="247.43" departLane="best" from="-297225622" to="24221021"/>
    <trip id="veh194" type="veh_passenger" depart="250.01" departLane="best" from="-143183287" to="-411014865"/>
    <trip id="veh196" type="veh_passenger" depart="252.59" departLane="best" departSpeed="max" from="15021030" to="-23918490#0"/>
    <trip id="veh201" type="veh_passenger" depart="259.03" departLane="best" from="393505712#0" to="32252194"/>
    <trip id="veh203" type="veh_passenger" depart="261.61" departLane="best" from="-64595865" to="307076768#2"/>
    <trip id="veh204" type="veh_passenger" depart="262.90" departLane="best" from="392719989" to="770679467#1"/>
    <trip id="veh206" type="veh_passenger" depart="265.48" departLane="best" departSpeed="max" from="15021030" to="23903578"/>
    <trip id="veh207" type="veh_passenger" depart="266.76" departLane="best" from="-27496690#1" to="-307076768#1"/>
    <trip id="veh208" type="veh_passenger" depart="268.05" departLane="best" departSpeed="max" from="-96306832#2" to="-11818113#0"/>
    <trip id="veh209" type="veh_passenger" depart="269.34" departLane="best" from="-46191496#3" to="27496690#1"/>
    <trip id="veh213" type="veh_passenger" depart="274.50" departLane="best" from="-770677236#1" to="186632793#0"/>
    <trip id="veh214" type="veh_passenger" depart="275.79" departLane="best" from="-11627689" to="24694092#1"/>
    <trip id="veh215" type="veh_passenger" depart="277.07" departLane="best" departSpeed="max" from="-17384256" to="13215492#0"/>
    <trip id="veh217" type="veh_passenger" depart="279.65" departLane="best" from="-24715906#2" to="-681503599"/>
    <trip id="veh221" type="veh_passenger" depart="284.81" departLane="best" from="24219313" to="369711987"/>
    <trip id="veh223" type="veh_passenger" depart="287.38" departLane="best" departSpeed="max" from="83687789" to="-29408065#0"/>
    <trip id="veh225" type="veh_passenger" depart="289.96" departLane="best" from="26626390" to="32252194"/>
    <trip id="veh226" type="veh_passenger" depart="291.25" departLane="best" departSpeed="max" from="-23903578" to="23918286#0"/>
    <trip id="veh228" type="veh_passenger" depart="293.83" departLane="best" departSpeed="max" from="-155542976" to="-11627689"/>
    <trip id="veh231" type="veh_passenger" depart="297.69" departLane="best" from="-155467734" to="35046089#0"/>
    <trip id="veh233" type="veh_passenger" depart="300.27" departLane="best" from="-16893609" to="96306832#1"/>
    <trip id="veh234" type="veh_passenger" depart="301.56" departLane="best" departSpeed="max" from="314492923" to="-770677245"/>
    <trip id="veh236" type="veh_passenger" depart="304.14" departLane="best" from="124977959#3" to="-770677236#1"/>
    <trip id="veh239" type="veh_passenger" depart="308.00" departLane="best" from="23918356" to="399282763"/>
    <trip id="veh242" type="veh_passenger" depart="311.87" departLane="best" from="-318209631#1" to="391923088"/>
    <trip id="veh243" type="veh_passenger" depart="313.16" departLane="best" from="-318209631#0" to="42992977#1"/>
    <trip id="veh244" type="veh_passenger" depart="314.45" departLane="best" from="390709999" to="-155467732#0"/>
    <trip id="veh245" type="veh_passenger" depart="315.74" departLane="best" from="56139355#0" to="-31540126"/>
    <trip id="veh249" type="veh_passenger" depart="320.89" departLane="best" from="27107042" to="-391923087"/>
    <trip id="veh250" type="veh_passenger" depart="322.18" departLane="best" departSpeed="max" from="-102809770#1" to="770677245"/>
    <trip id="veh251" type="veh_passenger" depart="323.47" departLane="best" departSpeed="max" from="-15021019#3" to="30182236"/>
    <trip id="veh252" type="veh_passenger" depart="324.76" departLane="best" from="118607895" to="317130966"/>
    <trip id="veh253" type="veh_passenger" depart="326.05" departLane="best" from="118607900" to="390709999"/>
    <trip id="veh254" type="veh_passenger" depart="327.33" departLane="best" from="17457033#4" to="143183286"/>
    <trip id="veh256" type="veh_passenger" depart="329.91" departLane="best" from="30182237" to="-697574936#1"/>
    <trip id="veh257" type="veh_passenger" depart="331.20" departLane="best" from="27496690#0" to="-390705309#0"/>
    <trip id="veh259" type="veh_passenger" depart="333.78" departLane="best" from="15021019#1" to="318209631#2"/>
    <trip id="veh261" type="veh_passenger" depart="336.36" departLane="best" from="11818113#3" to="30182236"/>
    <trip id="veh263" type="veh_passenger" depart="338.93" departLane="best" from="-369711987" to="-186632793#0"/>
    <trip id="veh264" type="veh_passenger" depart="340.22" departLane="best" from="-24219312" to="-314492923"/>
    <trip id="veh266" type="veh_passenger" depart="342.80" departLane="best" from="15021019#0" to="-390709999"/>
    <trip id="veh269" type="veh_passenger" depart="346.67" departLane="best" from="486972235#0" to="186632793#4"/>
    <trip id="veh271" type="veh_passenger" depart="349.24" departLane="best" from="-23918359" to="-124977959#2"/>
    <trip id="veh272" type="veh_passenger" depart="350.53" departLane="best" from="378330769#0" to="102809770#1"/>
    <trip id="veh273" type="veh_passenger" depart="351.82" departLane="best" from="-143183287" to="24219491#1"/>
    <trip id="veh274" type="veh_passenger" depart="353.11" departLane="best" from="-12273115" to="-24693823#1"/>
    <trip id="veh278" type="veh_passenger" depart="358.26" departLane="best" departSpeed="max" from="31540126" to="-314492923"/>
    <trip id="veh279" type="veh_passenger" depart="359.55" departLane="best" from="-96306841" to="46191489#0"/>
    <trip id="veh281" type="veh_passenger" depart="362.13" departLane="best" from="29408070" to="770677245"/>
    <trip id="veh283" type="veh_passenger" depart="364.71" departLane="best" from="24219491#4" to="-24694123"/>
    <trip id="veh284" type="veh_passenger" depart="366.00" departLane="best" from="-23918286#1" to="-15021023"/>
    <trip id="veh285" type="veh_passenger" depart="367.28" departLane="best" departSpeed="max" from="-102809770#1" to="12273115"/>
    <trip id="veh286" type="veh_passenger" depart="368.57" departLane="best" from="-29317738#1" to="29408065#1"/>
    <trip id="veh288" type="veh_passenger" depart="371.15" departLane="best" departSpeed="max" from="31540126" to="24219313"/>
    <trip id="veh290" type="veh_passenger" depart="373.73" departLane="best" from="-96306832#0" to="17457033#1"/>
    <trip id="veh291" type="veh_passenger" depart="375.02" departLane="best" from="23918493" to="681503599"/>
    <trip id="veh292" type="veh_passenger" depart="376.31" departLane="best" from="390705309#0" to="-15021019#1"/>
    <trip id="veh293" type="veh_passenger" depart="377.59" departLane="best" departSpeed="max" from="-23903578" to="-486972235#1"/>
    <trip id="veh294" type="veh_passenger" depart="378.88" departLane="best" from="-390705309#1" to="-23918286#1"/>
    <trip id="veh295" type="veh_passenger" depart="380.17" departLane="best" departSpeed="max" from="80152409" to="155364235"/>
    <trip id="veh296" type="veh_passenger" depart="381.46" departLane="best" from="118607906" to="-15021030"/>
    <trip id="veh297" type="veh_passenger" depart="382.75" departLane="best" departSpeed="max" from="-42992977#1" to="-317130966"/>
    <trip id="veh299" type="veh_passenger" depart="385.33" departLane="best" from="390709999" to="186632793#4"/>
    <trip id="veh300" type="veh_passenger" depart="386.62" departLane="best" departSpeed="max" from="83687789" to="96311855#1"/>
    <trip id="veh301" type="veh_passenger" depart="387.90" departLane="best" departSpeed="max" from="24694123" to="-369855809"/>
    <trip id="veh302" type="veh_passenger" depart="389.19" departLane="best" from="-11818113#1" to="314292899"/>
    <trip id="veh305" type="veh_passenger" depart="393.06" departLane="best" from="186198379" to="24219491#4"/>
    <trip id="veh307" type="veh_passenger" depart="395.64" departLane="best" departSpeed="max" from="24694123" to="440803438"/>
    <trip id="veh308" type="veh_passenger" depart="396.93" departLane="best" departSpeed="max" from="-42992977#1" to="29317738#1"/>
    <trip id="veh309" type="veh_passenger" depart="398.21" departLane="best" from="-390705309#0" to="770677244"/>
    <trip id="veh310" type="veh_passenger" depart="399.50" departLane="best" from="35046089#1" to="186198379"/>
    <trip id="veh312" type="veh_passenger" depart="402.08" departLane="best" departSpeed="max" from="-42992977#1" to="90239683"/>
    <trip id="veh314" type="veh_passenger" depart="404.66" departLane="best" from="95243726" to="24716580#0"/>
    <trip id="veh316" type="veh_passenger" depart="407.24" departLane="best" from="-23918490#0" to="-83687789"/>
    <trip id="veh320" type="veh_passenger" depart="412.39" departLane="best" from="-16893609" to="915205870#0"/>
    <trip id="veh322" type="veh_passenger" depart="414.97" departLane="best" from="-23389835#0" to="186198379"/>
    <trip id="veh326" type="veh_passenger" depart="420.12" departLane="best" from="390709999" to="15021023"/>
    <trip id="veh327" type="veh_passenger" depart="421.41" departLane="best" from="289841086" to="155542976"/>
    <trip id="veh328" type="veh_passenger" depart="422.70" departLane="best" from="-328178779" to="420011938"/>
    <trip id="veh329" type="veh_passenger" depart="423.99" departLane="best" from="915205869#1" to="-31540126"/>
    <trip id="veh331" type="veh_passenger" depart="426.57" departLane="best" from="770677236#1" to="155542976"/>
    <trip id="veh332" type="veh_passenger" depart="427.85" departLane="best" from="549336711" to="46191510#0"/>
    <trip id="veh333" type="veh_passenger" depart="429.14" departLane="best" from="-34569965" to="390705309#1"/>
    <trip id="veh335" type="veh_passenger" depart="431.72" departLane="best" from="13215491" to="393505712#0"/>
    <trip id="veh336" type="veh_passenger" depart="433.01" departLane="best" from="-369711987" to="-46191496#0"/>
    <trip id="veh337" type="veh_passenger" depart="434.30" departLane="best" from="186198379" to="96311855#1"/>
    <trip id="veh338" type="veh_passenger" depart="435.59" departLane="best" from="118607895" to="-24693823#1"/>
    <trip id="veh339" type="veh_passenger" depart="436.88" departLane="best" from="15021023" to="-770677243"/>
    <trip id="veh340" type="veh_passenger" depart="438.16" departLane="best" from="155542968" to="17457033#1"/>
    <trip id="veh342" type="veh_passenger" depart="440.74" departLane="best" from="-23918490#1" to="29317738#3"/>
    <trip id="veh344" type="veh_passenger" depart="443.32" departLane="best" from="314292899" to="-12273115"/>
    <trip id="veh345" type="veh_passenger" depart="444.61" departLane="best" from="24221021" to="393505712#0"/>
    <trip id="veh347" type="veh_passenger" depart="447.19" departLane="best" from="186522910" to="486972235#1"/>
    <trip id="veh348" type="veh_passenger" depart="448.47" departLane="best" from="486972235#0" to="118607895"/>
    <trip id="veh349" type="veh_passenger" depart="449.76" departLane="best" from="143183286" to="124977959#3"/>
    <trip id="veh351" type="veh_passenger" depart="452.34" departLane="best" from="24219491#0" to="-24694123"/>
    <trip id="veh353" type="veh_passenger" depart="454.92" departLane="best" from="-46191510#1" to="29317738#0"/>
    <trip id="veh355" type="veh_passenger" depart="457.50" departLane="best" from="29317738#0" to="318209631#0"/>
    <trip id="veh356" type="veh_passenger" depart="458.78" departLane="best" from="46191510#0" to="-118607894"/>
    <trip id="veh357" type="veh_passenger" depart="460.07" departLane="best" from="-13215492#2" to="24219491#2"/>
    <trip id="veh358" type="veh_passenger" depart="461.36" departLane="best" from="770677236#1" to="96311855#1"/>
    <trip id="veh359" type="veh_passenger" depart="462.65" departLane="best" from="30182237" to="11818113#1"/>
    <trip id="veh360" type="veh_passenger" depart="463.94" departLane="best" from="-155467732#0" to="24219491#3"/>
    <trip id="veh361" type="veh_passenger" depart="465.23" departLane="best" from="486972235#0" to="118607900"/>
    <trip id="veh362" type="veh_passenger" depart="466.52" departLane="best" from="24716580#1" to="681503599"/>
    <trip id="veh364" type="veh_passenger" depart="469.09" departLane="best" from="-186632793#3" to="17384256"/>
    <trip id="veh366" type="veh_passenger" depart="471.67" departLane="best" from="-23918286#1" to="-15021030"/>
    <trip id="veh368" type="veh_passenger" depart="474.25" departLane="best" from="-186632793#2" to="13215492#0"/>
    <trip id="veh370" type="veh_passenger" depart="476.83" departLane="best" departSpeed="max" from="-102809770#1" to="391923087"/>
    <trip id="veh372" type="veh_passenger" depart="479.40" departLane="best" from="-23389835#0" to="118607895"/>
    <trip id="veh373" type="veh_passenger" depart="480.69" departLane="best" from="-549336712" to="19355403#5"/>
    <trip id="veh375" type="veh_passenger" depart="483.27" departLane="best" from="-24694092#1" to="-96306840#0"/>
    <trip id="veh376" type="veh_passenger" depart="484.56" departLane="best" from="11818113#3" to="-31540126"/>
    <trip id="veh378" type="veh_passenger" depart="487.14" departLane="best" from="96306832#1" to="-440803438"/>
    <trip id="veh379" type="veh_passenger" depart="488.42" departLane="best" from="90239683" to="24716580#0"/>
    <trip id="veh380" type="veh_passenger" depart="489.71" departLane="best" from="-345607727" to="186632793#2"/>
    <trip id="veh382" type="veh_passenger" depart="492.29" departLane="best" from="-118607895" to="23918214"/>
    <trip id="veh383" type="veh_passenger" depart="493.58" departLane="best" from="-369855809" to="391921422"/>
    <trip id="veh385" type="veh_passenger" depart="496.16" departLane="best" departSpeed="max" from="24694123" to="30182236"/>
    <trip id="veh387" type="veh_passenger" depart="498.73" departLane="best" from="23918493" to="-549336711"/>
    <trip id="veh388" type="veh_passenger" depart="500.02" departLane="best" from="-96306841" to="19355403#1"/>
    <trip id="veh389" type="veh_passenger" depart="501.31" departLane="best" from="29408064" to="-155467734"/>
    <trip id="veh391" type="veh_passenger" depart="503.89" departLane="best" from="378330769#2" to="143183287"/>
    <trip id="veh401" type="veh_passenger" depart="516.78" departLane="best" departSpeed="max" from="24694123" to="19355403#4"/>
    <trip id="veh402" type="veh_passenger" depart="518.07" departLane="best" departSpeed="max" from="-155542976" to="-31540126"/>
    <trip id="veh403" type="veh_passenger" depart="519.35" departLane="best" from="-11627689" to="61383017#1"/>
    <trip id="veh405" type="veh_passenger" depart="521.93" departLane="best" from="378330769#2" to="681503599"/>
    <trip id="veh407" type="veh_passenger" depart="524.51" departLane="best" from="-186632793#0" to="770677244"/>