<?xml version="1.0" encoding="UTF-8"?>
<!-- generated on 2022-01-10 15:46:53.608049 by $Id: ptlines2flows.py v1_3_1+0313-ccb31df3eb jakob.erdmann@dlr.de 2019-09-02 13:26:32 +0200 $ v1_11_0+0000-d32ff7d52a3
  options: 
-->
<routes xmlns:xsi="http://www.w3.org/2001/XMLSchema-instance" xsi:noNamespaceSchemaLocation="http://sumo.dlr.de/xsd/routes_file.xsd">
    <vType id="pt_bus" vClass="bus"/>
    <vType id="pt_tram" vClass="tram"/>
    <vType id="pt_train" vClass="rail"/>
    <vType id="pt_subway" vClass="rail_urban"/>
    <vType id="pt_light_rail" vClass="rail_urban"/>
    <vType id="pt_monorail" vClass="rail"/>
    <vType id="pt_trolleybus" vClass="bus"/>
    <vType id="pt_aerialway" vClass="bus"/>
    <vType id="pt_ferry" vClass="ship"/>
    <route id="pt_bus_5014:1" edges="303800726 23389873 23390822" >
    </route>
    <route id="pt_bus_5014:2" edges="303800726 23389873 23390822" >
    </route>
    <route id="pt_train_ICE_26:0" edges="24808934" >
        <stop busStop="114242594" duration="20" until="45.0"/> <!-- Lüneburg -->
    </route>
    <route id="pt_bus_5015:3" edges="-155467734 26945309#3 26945309#4 317130966 27107042 38851173 369711987 23903578" >
        <stop busStop="1116169525" duration="20" until="31.0"/> <!-- Bf. Lüneburg (ZOB) -->
    </route>
    <route id="pt_train_ICE_26:2" edges="24808934" >
        <stop busStop="114242594" duration="20" until="45.0"/> <!-- Lüneburg -->
    </route>
    <route id="pt_train_Bleckeder_Kleinbahn:_Lüneburg_=_Bleckede:0" edges="107583219#1 32855184#1" >
        <stop busStop="347321889" duration="20" until="31.0"/> <!-- Lüneburg -->
    </route>
    <route id="pt_bus_5002:1" color="red" edges="303800726 23389873 23390822" >
    </route>
    <route id="pt_train_RE3:0" edges="32855180" >
        <stop busStop="347321892" duration="20" until="39.0"/> <!-- Lüneburg -->
    </route>
    <route id="pt_train_ICE_26:1" edges="145893134#0 145893134#1 316263151 460743688#1 460743203#1" >
        <stop busStop="371334276" duration="20" until="250.0"/> <!-- Lüneburg -->
    </route>
    <route id="pt_bus_5012:1" edges="-102809770#1 29317738#1 -24694092#1 46191489#0 390709999 143183286 186198379 12273115 143183287 391921422 23918490#1 23918493 393505712#0 -23918281#0 46191510#0 697574936#0 915457925#0 915457925#1 26945309#3 26945309#4 317130966 27107042 38851173 369711987 23903578" >
        <stop busStop="-1181280584" duration="20" until="31.0"/> <!-- Kefersteinstraße (UNI) -->
    </route>
    <route id="pt_bus_5002:4" color="red" edges="303800726 23389873 23390822" >
    </route>
    <route id="pt_bus_5002:5" color="red" edges="303800726 23389873 23390822" >
    </route>
    <route id="pt_bus_5002:6" color="red" edges="303800726 23389873 23390822" >
    </route>
    <route id="pt_bus_5014:7" edges="303800726 23389873 23390822" >
    </route>
    <route id="pt_bus_5013:0" edges="-155467734 96294225" >
        <stop busStop="1116169506" duration="20" until="31.0"/> <!-- Bf. Lüneburg (ZOB) -->
        <stop busStop="1115656902" duration="20" until="380.0"/> <!-- Am Sande -->
    </route>
    <route id="pt_train_RE3:1" edges="24808934" >
        <stop busStop="114242594" duration="20" until="45.0"/> <!-- Lüneburg -->
    </route>
    <route id="pt_train_RB31:0" edges="32856147#1" >
        <stop busStop="3594368123" duration="20" until="53.0"/> <!-- Lüneburg -->
    </route>
    <route id="pt_train_ICE_26:4" edges="24808934" >
        <stop busStop="114242594" duration="20" until="45.0"/> <!-- Lüneburg -->
    </route>
    <route id="pt_train_RE83:0" color="41,92,170" edges="331708951#0 331708951#1 24808619#0" >
        <stop busStop="305721264" duration="20" until="72.0"/> <!-- Lüneburg -->
    </route>
    <route id="pt_train_RB32:0" edges="27822819 656092301#1 27822826#1" >
        <stop busStop="3594368125" duration="20" until="51.0"/> <!-- Lüneburg -->
    </route>
    <route id="pt_train_ICE_25:0" edges="24808934" >
        <stop busStop="114242594" duration="20" until="95.0"/> <!-- Lüneburg -->
    </route>
    <route id="pt_train_RE83:1" color="41,92,170" edges="24808619#0" >
        <stop busStop="305721264" duration="20" until="34.0"/> <!-- Lüneburg -->
    </route>
    <route id="pt_train_RB31:1" edges="32856147#0 32856147#1" >
        <stop busStop="3594368123" duration="20" until="166.0"/> <!-- Lüneburg -->
    </route>
    <route id="pt_bus_5013:1" edges="-155467734 96294225" >
        <stop busStop="1116169506" duration="20" until="31.0"/> <!-- Bf. Lüneburg (ZOB) -->
    </route>
    <route id="pt_train_ICE_26:7" edges="24808934" >
        <stop busStop="114242594" duration="20" until="45.0"/> <!-- Lüneburg -->
    </route>
    <route id="pt_bus_5015:1" edges="26945311#1 36335706 96306840#1 96306832#1 96306832#2" >
        <stop busStop="1116169543" duration="20" until="34.0"/> <!-- Bf. Lüneburg (ZOB) -->
        <stop busStop="1115656880" duration="20" until="387.0"/> <!-- Am Sande -->
        <stop busStop="1116252423" duration="20" until="781.0"/> <!-- Wallstraße (Theater) -->
    </route>
    <route id="pt_train_IC_26.1:1" edges="24808934" >
        <stop busStop="114242594" duration="20" until="45.0"/> <!-- Lüneburg -->
    </route>
    <route id="pt_train_ICE_26:3" edges="145893134#0 145893134#1 316263151 460743688#1 460743203#1" >
        <stop busStop="371334276" duration="20" until="250.0"/> <!-- Lüneburg -->
    </route>
    <route id="pt_train_ICE_26:5" edges="145893134#0 145893134#1 316263151 460743688#1 460743203#1" >
        <stop busStop="371334276" duration="20" until="335.0"/> <!-- Lüneburg -->
    </route>
    <route id="pt_bus_5010:3" edges="-155542976 -369855809 -29084716#2 -124977959#4 -124977959#2 -124977959#1 -124977959#0 -155467732#2 -155467732#1 -155467732#0 -155467734" >
    </route>
    <route id="pt_bus_5013:4" edges="-155467734" >
        <stop busStop="1116169506" duration="20" until="31.0"/> <!-- Bf. Lüneburg (ZOB) -->
    </route>
    <route id="pt_bus_5014:0" edges="-155542976 -369855809 -29084716#2 697574936#0 915457925#0 915457925#1 26945311#0 26945311#1 96294225 -96294232 -303800726" >
        <stop busStop="3126301507" duration="20" until="89.0"/> <!-- Bf. Lüneburg (ZOB) -->
        <stop busStop="1115656902" duration="20" until="706.0"/> <!-- Am Sande -->
        <stop busStop="-1116169520" duration="20" until="1044.0"/> <!-- Markt -->
    </route>
    <route id="pt_bus_5006:0" edges="-42992977#1 -23389835#0 -186632793#5 -186632793#4 -186632793#3 -186632793#2 -186632793#0 -96311855#2 -23918281#0 46191510#0 -124977959#4 -124977959#2 -124977959#1 -124977959#0 -155467732#2 -155467732#1 -155467732#0 -155467734" >
        <stop busStop="1116169501" duration="20" until="645.0"/> <!-- Bf. Lüneburg (ZOB) -->
    </route>
    <route id="pt_train_ICE_26:6" edges="145893134#0 145893134#1 316263151 460743688#1 460743203#1" >
        <stop busStop="371334276" duration="20" until="420.0"/> <!-- Lüneburg -->
    </route>
    <route id="pt_bus_5010:0" edges="-155542976 -369855809 -29084716#2 -124977959#4 -124977959#2 -124977959#1 -124977959#0 -155467732#2 -155467732#1 -155467732#0 -155467734" >
        <stop busStop="1116169506" duration="20" until="863.0"/> <!-- Bf. Lüneburg (ZOB) -->
    </route>
    <route id="pt_bus_5012:2" edges="-155467734 26945309#3 26945309#4 317130966 27107042 38851173 369711987 23903578" >
        <stop busStop="1116169506" duration="20" until="31.0"/> <!-- Bf. Lüneburg (ZOB) -->
    </route>
    <route id="pt_bus_5014:3" edges="-155542976 -369855809 -29084716#2 697574936#0 915457925#0 915457925#1 26945311#0 26945311#1 -209380155#1 -209380155#0 -155467734 26945309#3 26945309#4 317130966 27107042 -118607900 -194163682 -390705309#1 -390705309#0 -411014865 42992977#1" >
        <stop busStop="3126301507" duration="20" until="121.0"/> <!-- Bf. Lüneburg (ZOB) -->
    </route>
    <route id="pt_bus_5013:3" edges="-155467734 26945309#3 26945309#4 317130966 27107042 -118607900 -194163682 -390705309#1 -390705309#0 -411014865 42992977#1" >
        <stop busStop="1116169506" duration="20" until="31.0"/> <!-- Bf. Lüneburg (ZOB) -->
    </route>
    <route id="pt_bus_5010:1" edges="-155542976 -369855809 -29084716#2 -124977959#4 -124977959#2 -124977959#1 -124977959#0 -155467732#2 -155467732#1 -155467732#0 -155467734" >
        <stop busStop="1116169506" duration="20" until="895.0"/> <!-- Bf. Lüneburg (ZOB) -->
    </route>
    <route id="pt_bus_5012:0" edges="-155542976 -369855809 -29084716#2 -124977959#4 -124977959#2 -124977959#1 -124977959#0 -124977960 -314292900 -332577351 36335706 12136260#1 -549336711 102809770#0 102809770#1" >
        <stop busStop="-1116169505" duration="20" until="101.0"/> <!-- Bf. Lüneburg (ZOB) -->
        <stop busStop="1115656880" duration="20" until="455.0"/> <!-- Am Sande -->
        <stop busStop="1181280851" duration="20" until="1024.0"/> <!-- Rotes Tor -->
    </route>
    <route id="pt_bus_5006:1" edges="-155467734 26945309#3 26945309#4 317130966 27107042 -118607900 -194163682 -390705309#1 -390705309#0 -411014865 42992977#1" >
        <stop busStop="1116169501" duration="20" until="31.0"/> <!-- Bf. Lüneburg (ZOB) -->
    </route>
    <route id="pt_bus_5009:1" edges="-155467734 26945309#3 26945309#4 317130966 27107042 -118607900 -194163682 -390705309#1 -390705309#0 -411014865 42992977#1" >
        <stop busStop="1116169506" duration="20" until="31.0"/> <!-- Bf. Lüneburg (ZOB) -->
    </route>
    <route id="pt_train_IC_26.1:0" edges="145893134#0 145893134#1 316263151 460743688#1 460743203#1" >
        <stop busStop="371334276" duration="20" until="505.0"/> <!-- Lüneburg -->
    </route>
    <route id="pt_bus_5015:2" edges="-96306832#2 -96306832#1 -96306832#0 -96306840#0 -96306828 -155467734" >
        <stop busStop="-1116252422" duration="20" until="77.0"/> <!-- Wallstraße (Theater) -->
        <stop busStop="-1115656884" duration="20" until="467.0"/> <!-- Am Sande -->
        <stop busStop="1116169525" duration="20" until="1162.0"/> <!-- Bf. Lüneburg (ZOB) -->
    </route>
    <route id="pt_bus_5010:2" edges="-155542976 -369855809 -29084716#2 -124977959#4 -124977959#2 -124977959#1 -124977959#0 -155467732#2 -155467732#1 -155467732#0 -155467734" >
        <stop busStop="1116169506" duration="20" until="928.0"/> <!-- Bf. Lüneburg (ZOB) -->
    </route>
    <route id="pt_bus_5010:5" edges="-155542976 -369855809 -29084716#2 -124977959#4 -124977959#2 -124977959#1 -124977959#0 -155467732#2 -155467732#1 -155467732#0 -155467734" >
        <stop busStop="1116169506" duration="20" until="978.0"/> <!-- Bf. Lüneburg (ZOB) -->
    </route>
    <route id="pt_bus_5010:4" edges="-155542976 -369855809 -29084716#2 -124977959#4 -124977959#2 -124977959#1 -124977959#0 -155467732#2 -155467732#1 -155467732#0 -155467734" >
        <stop busStop="1116169506" duration="20" until="1020.0"/> <!-- Bf. Lüneburg (ZOB) -->
    </route>
    <route id="pt_bus_5010:6" edges="-155542976 -369855809 -29084716#2 -124977959#4 -124977959#2 -124977959#1 -124977959#0 -155467732#2 -155467732#1 -155467732#0 -155467734" >
        <stop busStop="1116169506" duration="20" until="1049.0"/> <!-- Bf. Lüneburg (ZOB) -->
    </route>
    <route id="pt_bus_5012:3" edges="-102809770#1 29317738#1 -24694092#1 46191489#0 390709999 143183286 186198379 12273115 143183287 391921422 23918490#1 23918493 393505712#0 -23918281#0 46191510#0 -124977959#4 -124977959#2 -124977959#1 -124977959#0 -155467732#2 -155467732#1 -155467732#0 -155467734" >
        <stop busStop="-1181280584" duration="20" until="31.0"/> <!-- Kefersteinstraße (UNI) -->
    </route>
    <route id="pt_bus_5014:6" edges="-155542976 -369855809 -29084716#2 697574936#0 915457925#0 915457925#1 26945311#0 26945311#1 -209380155#1 -209380155#0 -155467734 26945309#3 26945309#4 317130966 27107042 -118607900 -194163682 -390705309#1 -390705309#0 -411014865 42992977#1" >
    </route>
    <route id="pt_bus_5001:0" edges="80152409 392719989 118607895 12273115 143183287 391921422 23918490#1 23918493 393505712#0 -23918281#0 46191510#0 -124977959#4 -124977959#2 -124977959#1 -124977959#0 -124977960 -314292900 -332577351" >
        <stop busStop="-1116169491" duration="20" until="503.0"/> <!-- Bf. Lüneburg (ZOB) -->
    </route>
    <route id="pt_bus_5013:2" edges="-155467734 96294225 39258214 35470096#0 35470096#1 35470096#2 1012086133 83687778 -18925169 -899418894 -85220995#0" >
        <stop busStop="1116169506" duration="20" until="31.0"/> <!-- Bf. Lüneburg (ZOB) -->
        <stop busStop="1115656902" duration="20" until="925.0"/> <!-- Am Sande -->
        <stop busStop="1116252424" duration="20" until="1274.0"/> <!-- Rathaus -->
    </route>
    <route id="pt_bus_5012:4" edges="-155542976 -369855809 -29084716#2 -124977959#4 -124977959#2 -124977959#1 -124977959#0 -124977960 -314292900 -332577351 36335706 12136260#1 -549336711 102809770#0 102809770#1" >
        <stop busStop="-1116169505" duration="20" until="108.0"/> <!-- Bf. Lüneburg (ZOB) -->
        <stop busStop="1115656880" duration="20" until="724.0"/> <!-- Am Sande -->
        <stop busStop="1181280851" duration="20" until="1294.0"/> <!-- Rotes Tor -->
    </route>
    <route id="pt_bus_5100:0" edges="-96306828 -332577351 -26945311#0 -297225622 -915457925#0 -697574936#1 29084716#1 155542968 155542976" >
        <stop busStop="-1115656884" duration="20" until="77.0"/> <!-- Am Sande -->
        <stop busStop="-1116169491" duration="20" until="423.0"/> <!-- Bf. Lüneburg (ZOB) -->
    </route>
    <route id="pt_bus_5015:4" edges="-155542976 -369855809 -29084716#2 697574936#0 915457925#0 915457925#1 26945311#0 26945311#1" >
        <stop busStop="1116169543" duration="20" until="166.0"/> <!-- Bf. Lüneburg (ZOB) -->
    </route>
    <route id="pt_bus_5010:7" edges="-155467734 -96306841 -155467734 -297225622 -915457925#0 -697574936#1 29084716#1 155542968 155542976" >
        <stop busStop="1116169506" duration="20" until="31.0"/> <!-- Bf. Lüneburg (ZOB) -->
    </route>
    <route id="pt_bus_5007:8" edges="-42992977#1 -23389835#0 -186632793#5 -186632793#4 -186632793#3 -186632793#2 -186632793#0 -96311855#2 -23918281#0 46191510#0 697574936#0 915457925#0 915457925#1 26945311#0 26945311#1 36335706 96306840#1 96306832#1 96306832#2" >
        <stop busStop="1115656880" duration="20" until="633.0"/> <!-- Am Sande -->
        <stop busStop="1116252423" duration="20" until="1293.0"/> <!-- Wallstraße (Theater) -->
    </route>
    <route id="pt_bus_5014:5" edges="-155542976 -369855809 -29084716#2 697574936#0 915457925#0 915457925#1 26945311#0 26945311#1 96294225 -96294232 -303800726" >
        <stop busStop="3126301507" duration="20" until="728.0"/> <!-- Bf. Lüneburg (ZOB) -->
        <stop busStop="1115656902" duration="20" until="1063.0"/> <!-- Am Sande -->
        <stop busStop="-1116169520" duration="20" until="1401.0"/> <!-- Markt -->
    </route>
    <route id="pt_bus_5110:0" edges="-96306828 -332577351 -26945311#0 -297225622 -915457925#0 -697574936#1 29084716#1 155542968 155542976" >
        <stop busStop="-1115656884" duration="20" until="110.0"/> <!-- Am Sande -->
        <stop busStop="-1116169491" duration="20" until="725.0"/> <!-- Bf. Lüneburg (ZOB) -->
    </route>
    <route id="pt_bus_5005:0" edges="-42992977#1 -23389835#0 -186632793#5 -186632793#4 -186632793#3 -186632793#2 -186632793#0 -96311855#2 -23918281#0 46191510#0 -124977959#4 -124977959#2 -124977959#1 -124977959#0 -124977960 -314292900 -332577351 -26945311#0 26945309#3 26945309#4 317130966 27107042 -118607900 -194163682 -390705309#1 -390705309#0 -411014865 42992977#1" >
        <stop busStop="-1116169543" duration="20" until="922.0"/> <!-- Bf. Lüneburg (ZOB) -->
    </route>
    <route id="pt_bus_5001:1" edges="-332577351 -26945311#0 -297225622 -915457925#0 -697574936#1 -46191510#1 -11627689 -393505712#1 -23918493 -23918490#1 -23918490#0 -143183287 -12273115 -118607895 -392719989 -80152409" >
        <stop busStop="-1116169491" duration="20" until="31.0"/> <!-- Bf. Lüneburg (ZOB) -->
    </route>
    <route id="pt_bus_5010:8" edges="-155467734 -96306841 -155467734 -297225622 -915457925#0 -697574936#1 29084716#1 155542968 155542976" >
        <stop busStop="1116169506" duration="20" until="31.0"/> <!-- Bf. Lüneburg (ZOB) -->
    </route>
    <route id="pt_bus_5700:0" edges="-155542976 -369855809 -29084716#2 -124977959#4 -124977959#2 -124977959#1 -124977959#0 -124977960 -314292900 -332577351 36335706 96306840#1 96306832#1 96306832#2" >
        <stop busStop="-1116169499" duration="20" until="113.0"/> <!-- Bf. Lüneburg (ZOB) -->
        <stop busStop="1115656880" duration="20" until="991.0"/> <!-- Am Sande -->
        <stop busStop="1116252423" duration="20" until="1871.0"/> <!-- Wallstraße (Theater) -->
    </route>
    <route id="pt_bus_5900:0" edges="-96306828 -332577351 -26945311#0 26945309#3 26945309#4 317130966 27107042 38851173 369711987 23903578" >
        <stop busStop="-1115656884" duration="20" until="108.0"/> <!-- Am Sande -->
        <stop busStop="-1116169499" duration="20" until="1024.0"/> <!-- Bf. Lüneburg (ZOB) -->
    </route>
    <route id="pt_bus_5007:3" edges="-96306832#2 -96306832#1 -96306832#0 -96306840#0 -96306828 -155467734 26945309#3 26945309#4 317130966 27107042 38851173 369711987 23903578" >
    </route>
    <route id="pt_bus_5010:9" edges="-155467734 -96306841 -155467734 -297225622 -915457925#0 -697574936#1 29084716#1 155542968 155542976" >
        <stop busStop="1116169506" duration="20" until="31.0"/> <!-- Bf. Lüneburg (ZOB) -->
    </route>
    <route id="pt_bus_5014:4" edges="-155542976 -369855809 -29084716#2 697574936#0 915457925#0 915457925#1 26945311#0 26945311#1 96294225 -96294232 -303800726" >
        <stop busStop="3126301507" duration="20" until="165.0"/> <!-- Bf. Lüneburg (ZOB) -->
        <stop busStop="-1116169520" duration="20" until="2229.0"/> <!-- Markt -->
    </route>
    <route id="pt_bus_5015:6" edges="-155542976 -369855809 -29084716#2 697574936#0 915457925#0 915457925#1 26945311#0 26945311#1 36335706 96306840#1 96306832#1 96306832#2" >
        <stop busStop="1115656880" duration="20" until="974.0"/> <!-- Am Sande -->
        <stop busStop="1116252423" duration="20" until="1976.0"/> <!-- Wallstraße (Theater) -->
    </route>
    <route id="pt_bus_5100:2" edges="-96306828 -332577351 -26945311#0 -297225622 -915457925#0 -697574936#1 29084716#1 155542968 155542976" >
        <stop busStop="-1115656884" duration="20" until="385.0"/> <!-- Am Sande -->
        <stop busStop="-1116169491" duration="20" until="1301.0"/> <!-- Bf. Lüneburg (ZOB) -->
    </route>
    <route id="pt_bus_5200:0" color="red" edges="-332577351 -26945311#0 26945309#3 26945309#4 317130966 27107042 -118607900 -194163682 -390705309#1 -390705309#0 -411014865 42992977#1" >
        <stop busStop="-1116169491" duration="20" until="31.0"/> <!-- Bf. Lüneburg (ZOB) -->
    </route>
    <route id="pt_bus_5005:1" edges="-42992977#1 -23389835#0 -186632793#5 -186632793#4 -186632793#3 -186632793#2 -186632793#0 -96311855#2 -23918281#0 46191510#0 -124977959#4 -124977959#2 -124977959#1 -124977959#0 -124977960 -314292900 -332577351 96294225 39258214 35470096#0 35470096#1 35470096#2 1012086133 83687778 -18925169 -899418894 -85220995#0" >
        <stop busStop="-1116169543" duration="20" until="955.0"/> <!-- Bf. Lüneburg (ZOB) -->
        <stop busStop="1115656902" duration="20" until="1736.0"/> <!-- Am Sande -->
        <stop busStop="1116252424" duration="20" until="2083.0"/> <!-- Rathaus -->
    </route>
    <route id="pt_bus_5009:2" edges="85220995#0 -96306840#0 -96306828 -155467734" >
        <stop busStop="-1115656899" duration="20" until="1361.0"/> <!-- Am Sande -->
    </route>
    <route id="pt_bus_5600:0" edges="-332577351 36335706 96306840#1 96306832#1 96306832#2" >
        <stop busStop="-1116169499" duration="20" until="31.0"/> <!-- Bf. Lüneburg (ZOB) -->
        <stop busStop="1115656880" duration="20" until="1091.0"/> <!-- Am Sande -->
        <stop busStop="1116252423" duration="20" until="2281.0"/> <!-- Wallstraße (Theater) -->
    </route>
    <route id="pt_bus_5010:10" edges="-155467734 -96306841 -155467734 -297225622 -915457925#0 -697574936#1 29084716#1 155542968 155542976" >
        <stop busStop="1116169506" duration="20" until="31.0"/> <!-- Bf. Lüneburg (ZOB) -->
    </route>
    <route id="pt_bus_5015:9" edges="-155467734 26945309#3 26945309#4 317130966 27107042 38851173 369711987 23903578" >
        <stop busStop="1116169525" duration="20" until="31.0"/> <!-- Bf. Lüneburg (ZOB) -->
    </route>
    <route id="pt_bus_5004:0" edges="-155467734 26945309#3 26945309#4 317130966 27107042 38851173 369711987 23903578" >
        <stop busStop="798769574" duration="20" until="31.0"/> <!-- Bf. Lüneburg (ZOB) -->
    </route>
    <route id="pt_bus_5010:11" edges="-155467734 -96306841 -155467734 -297225622 -915457925#0 -697574936#1 29084716#1 155542968 155542976" >
        <stop busStop="1116169506" duration="20" until="31.0"/> <!-- Bf. Lüneburg (ZOB) -->
    </route>
    <route id="pt_bus_5010:12" edges="-155467734 -96306841 -155467734 -297225622 -915457925#0 -697574936#1 29084716#1 155542968 155542976" >
        <stop busStop="1116169506" duration="20" until="31.0"/> <!-- Bf. Lüneburg (ZOB) -->
    </route>
    <route id="pt_bus_5010:13" edges="-155467734 -96306841 -155467734 -297225622 -915457925#0 -697574936#1 29084716#1 155542968 155542976" >
        <stop busStop="1116169506" duration="20" until="31.0"/> <!-- Bf. Lüneburg (ZOB) -->
    </route>
    <route id="pt_bus_5015:5" edges="-96306832#2 -96306832#1 -96306832#0 -96306840#0 -96306828 -155467734 26945309#3 26945309#4 317130966 27107042 38851173 369711987 23903578" >
        <stop busStop="-1116252422" duration="20" until="100.0"/> <!-- Wallstraße (Theater) -->
        <stop busStop="-1115656884" duration="20" until="1775.0"/> <!-- Am Sande -->
        <stop busStop="1116169525" duration="20" until="2691.0"/> <!-- Bf. Lüneburg (ZOB) -->
    </route>
    <route id="pt_bus_5010:14" edges="-155467734 -96306841 -155467734 -297225622 -915457925#0 -697574936#1 29084716#1 155542968 155542976" >
        <stop busStop="1116169506" duration="20" until="31.0"/> <!-- Bf. Lüneburg (ZOB) -->
    </route>
    <route id="pt_bus_5100:3" edges="-96306828 -332577351 -26945311#0 -297225622 -915457925#0 -697574936#1 29084716#1 155542968 155542976" >
        <stop busStop="-1115656884" duration="20" until="686.0"/> <!-- Am Sande -->
        <stop busStop="-1116169491" duration="20" until="1603.0"/> <!-- Bf. Lüneburg (ZOB) -->
    </route>
    <route id="pt_bus_5015:7" edges="-155542976 -369855809 -29084716#2 697574936#0 915457925#0 915457925#1 26945311#0 26945311#1" >
        <stop busStop="1116169543" duration="20" until="1350.0"/> <!-- Bf. Lüneburg (ZOB) -->
    </route>
    <route id="pt_bus_5300:0" edges="26945311#1 314292900 124977960 124977959#0 124977959#1 124977959#2 124977959#3 29084716#1 155542968 155542976" >
        <stop busStop="1116169505" duration="20" until="34.0"/> <!-- Bf. Lüneburg (ZOB) -->
    </route>
    <route id="pt_bus_5015:0" edges="-155542976 -369855809 -29084716#2 697574936#0 915457925#0 915457925#1 26945311#0 26945311#1 36335706 96306840#1 96306832#1 96306832#2" >
        <stop busStop="1116169543" duration="20" until="152.0"/> <!-- Bf. Lüneburg (ZOB) -->
        <stop busStop="1115656880" duration="20" until="1695.0"/> <!-- Am Sande -->
        <stop busStop="1116252423" duration="20" until="2943.0"/> <!-- Wallstraße (Theater) -->
    </route>
    <route id="pt_bus_5009:0" edges="26945311#1 96294225 39258214 35470096#0 35470096#1 35470096#2 1012086133 83687778 -18925169 -899418894 -85220995#0" >
        <stop busStop="1116169495" duration="20" until="35.0"/> <!-- Bf. Lüneburg (ZOB) -->
        <stop busStop="1116252424" duration="20" until="2289.0"/> <!-- Rathaus -->
    </route>
    <route id="pt_bus_5777:0" edges="-332577351 -26945311#0 26945309#3 26945309#4 317130966 27107042 -118607900 -194163682 -390705309#1 -390705309#0 -411014865 42992977#1" >
        <stop busStop="-1116169491" duration="20" until="31.0"/> <!-- Bf. Lüneburg (ZOB) -->
    </route>
    <route id="pt_bus_5200:3" color="red" edges="-332577351 96294225 39258214 35470096#0 35470096#1 35470096#2 1012086133 83687778 -18925169 -899418894 -85220995#0" >
        <stop busStop="-1116169491" duration="20" until="31.0"/> <!-- Bf. Lüneburg (ZOB) -->
        <stop busStop="1116252424" duration="20" until="768.0"/> <!-- Rathaus -->
    </route>
    <route id="pt_bus_5007:0" edges="-96306832#2 -96306832#1 -96306832#0 -96306840#0 -96306828 -155467734 26945309#3 26945309#4 317130966 27107042 38851173 369711987 23903578" >
        <stop busStop="-1116252422" duration="20" until="1298.0"/> <!-- Wallstraße (Theater) -->
        <stop busStop="1116169501" duration="20" until="2673.0"/> <!-- Bf. Lüneburg (ZOB) -->
    </route>
    <route id="pt_bus_5200:2" color="red" edges="-332577351 96294225 39258214 35470096#0 35470096#1 35470096#2 1012086133 83687778 -18925169 -899418894 -85220995#0" >
        <stop busStop="-1116169491" duration="20" until="31.0"/> <!-- Bf. Lüneburg (ZOB) -->
        <stop busStop="1115656902" duration="20" until="736.0"/> <!-- Am Sande -->
        <stop busStop="1116252424" duration="20" until="1113.0"/> <!-- Rathaus -->
    </route>
    <route id="pt_bus_5005:2" edges="85220995#0 -96306840#0 -96306828 -155467734 26945309#3 26945309#4 317130966 27107042 -118607900 -194163682 -390705309#1 -390705309#0 -411014865 42992977#1" >
        <stop busStop="-1115656899" duration="20" until="1753.0"/> <!-- Am Sande -->
        <stop busStop="1116169525" duration="20" until="2671.0"/> <!-- Bf. Lüneburg (ZOB) -->
    </route>
    <route id="pt_bus_5201:0" color="red" edges="-332577351 36335706 -115597416#1 -115597416#0 -391923087 -31540126" >
        <stop busStop="-1116169491" duration="20" until="31.0"/> <!-- Bf. Lüneburg (ZOB) -->
        <stop busStop="1115656880" duration="20" until="1102.0"/> <!-- Am Sande -->
        <stop busStop="-3211150433" duration="20" until="2590.0"/> <!-- Stadttheater -->
    </route>
    <route id="pt_bus_5011:0" edges="-96306832#2 -96306832#1 -96306832#0 -96306840#0 -96306828 26945311#1 314292900 124977960 124977959#0 124977959#1 124977959#2 124977959#3 29084716#1 155542968 155542976" >
        <stop busStop="-1116252422" duration="20" until="78.0"/> <!-- Wallstraße (Theater) -->
        <stop busStop="-1115656884" duration="20" until="2327.0"/> <!-- Am Sande -->
    </route>
    <route id="pt_bus_5100:1" edges="-155542976 -369855809 -29084716#2 -124977959#4 -124977959#2 -124977959#1 -124977959#0 -124977960 -314292900 -332577351 36335706" >
        <stop busStop="-1116169491" duration="20" until="968.0"/> <!-- Bf. Lüneburg (ZOB) -->
        <stop busStop="1115656884" duration="20" until="1905.0"/> <!-- Am Sande -->
    </route>
    <route id="pt_bus_5011:1" edges="-155542976 -369855809 -29084716#2 697574936#0 915457925#0 915457925#1 26945311#0 26945311#1 36335706 96306840#1 96306832#1 96306832#2" >
        <stop busStop="3126301507" duration="20" until="132.0"/> <!-- Bf. Lüneburg (ZOB) -->
        <stop busStop="1115656880" duration="20" until="1909.0"/> <!-- Am Sande -->
        <stop busStop="1116252423" duration="20" until="3464.0"/> <!-- Wallstraße (Theater) -->
    </route>
    <route id="pt_bus_5005:3" edges="85220995#0 -96306840#0 -96306828 -155467734 26945309#3 26945309#4 317130966 27107042 -118607900 -194163682 -390705309#1 -390705309#0 -411014865 42992977#1" >
        <stop busStop="-1115656899" duration="20" until="2365.0"/> <!-- Am Sande -->
        <stop busStop="1116169525" duration="20" until="3284.0"/> <!-- Bf. Lüneburg (ZOB) -->
    </route>
    <route id="pt_bus_5011:2" edges="26945311#1 36335706 96306840#1 96306832#1 96306832#2" >
        <stop busStop="3126301507" duration="20" until="34.0"/> <!-- Bf. Lüneburg (ZOB) -->
        <stop busStop="1115656880" duration="20" until="2261.0"/> <!-- Am Sande -->
        <stop busStop="1116252423" duration="20" until="3518.0"/> <!-- Wallstraße (Theater) -->
    </route>
    <route id="pt_bus_5007:7" edges="-42992977#1 -23389835#0 -186632793#5 -186632793#4 -186632793#3 -186632793#2 -186632793#0 -96311855#2 -23918281#0 46191510#0 697574936#0 915457925#0 915457925#1 26945311#0 26945311#1 36335706 96306840#1 96306832#1 96306832#2" >
        <stop busStop="1115656880" duration="20" until="2370.0"/> <!-- Am Sande -->
        <stop busStop="1116252423" duration="20" until="3778.0"/> <!-- Wallstraße (Theater) -->
    </route>
    <route id="pt_bus_5009:3" edges="85220995#0 -96306840#0 -96306828 -155467734" >
        <stop busStop="-1115656899" duration="20" until="2891.0"/> <!-- Am Sande -->
        <stop busStop="1116169506" duration="20" until="3809.0"/> <!-- Bf. Lüneburg (ZOB) -->
    </route>
    <route id="pt_bus_5007:9" edges="-155542976 -369855809 -29084716#2 697574936#0 915457925#0 915457925#1 26945311#0 26945311#1 36335706 96306840#1 96306832#1 96306832#2" >
        <stop busStop="1116169505" duration="20" until="1330.0"/> <!-- Bf. Lüneburg (ZOB) -->
        <stop busStop="1115656880" duration="20" until="2832.0"/> <!-- Am Sande -->
        <stop busStop="1116252423" duration="20" until="4083.0"/> <!-- Wallstraße (Theater) -->
    </route>
    <route id="pt_bus_5007:10" edges="-155542976 -369855809 -29084716#2 697574936#0 915457925#0 915457925#1 26945311#0 26945311#1 36335706 96306840#1 96306832#1 96306832#2" >
        <stop busStop="1116169505" duration="20" until="1579.0"/> <!-- Bf. Lüneburg (ZOB) -->
        <stop busStop="1115656880" duration="20" until="3113.0"/> <!-- Am Sande -->
        <stop busStop="1116252423" duration="20" until="4367.0"/> <!-- Wallstraße (Theater) -->
    </route>
    <route id="pt_bus_5200:1" color="red" edges="85220995#0 -96306840#0 -96306828 -332577351" >
        <stop busStop="-1115656884" duration="20" until="3495.0"/> <!-- Am Sande -->
        <stop busStop="-3126301507" duration="20" until="4411.0"/> <!-- Bf. Lüneburg (ZOB) -->
    </route>
    <route id="pt_bus_5002:2" color="red" edges="26945311#1 96294225 -96294232 -303800726" >