<?xml version="1.0" encoding="UTF-8"?>

<!-- generated on 2022-01-10 15:46:51 by Eclipse SUMO netconvert Version 1.11.0
<configuration xmlns:xsi="http://www.w3.org/2001/XMLSchema-instance" xsi:noNamespaceSchemaLocation="http://sumo.dlr.de/xsd/netconvertConfiguration.xsd">

    <input>
        <type-files value="C:\Program%20Files%20(x86)\Eclipse\Sumo\data\typemap\osmNetconvert.typ.xml"/>
        <osm-files value="osm_bbox.osm.xml"/>
    </input>

    <output>
        <output-file value="osm.net.xml"/>
        <output.street-names value="true"/>
        <output.original-names value="true"/>
        <ptstop-output value="osm_stops.add.xml"/>
        <ptline-output value="osm_ptlines.xml"/>
    </output>

    <projection>
        <proj.utm value="true"/>
    </projection>

    <processing>
        <geometry.remove value="true"/>
        <roundabouts.guess value="true"/>
    </processing>

    <tls_building>
        <tls.discard-simple value="true"/>
        <tls.join value="true"/>
        <tls.guess-signals value="true"/>
        <tls.default-type value="actuated"/>
    </tls_building>

    <ramp_guessing>
        <ramps.guess value="true"/>
    </ramp_guessing>

    <junctions>
        <junctions.join value="true"/>
        <junctions.corner-detail value="5"/>
    </junctions>

    <railway>
        <railway.topology.repair value="true"/>
        <railway.topology.repair.stop-turn value="true"/>
    </railway>

    <report>
        <verbose value="true"/>
        <aggregate-warnings value="5"/>
    </report>

</configuration>
-->

<additional xmlns:xsi="http://www.w3.org/2001/XMLSchema-instance" xsi:noNamespaceSchemaLocation="http://sumo.dlr.de/xsd/additional_file.xsd">
    <busStop id="-1115656884" name="Am Sande" lane="-96306828_0" startPos="103.44" endPos="118.44" friendlyPos="true" lines="5015 5011 5100 5110 5003 5900 5200"/>
    <busStop id="-1115656899" name="Am Sande" lane="-96306828_0" startPos="103.44" endPos="118.44" friendlyPos="true" lines="5009 5005 5007"/>
    <busStop id="-1116169491" name="Bf. Lüneburg (ZOB)" lane="-332577351_0" startPos="0.00" endPos="7.70" friendlyPos="true" lines="5001 5100 5110"/>
    <busStop id="-1116169499" name="Bf. Lüneburg (ZOB)" lane="-332577351_0" startPos="0.00" endPos="7.70" friendlyPos="true" lines="5600 5700 5900"/>
    <busStop id="-1116169505" name="Bf. Lüneburg (ZOB)" lane="-332577351_0" startPos="0.00" endPos="7.70" friendlyPos="true" lines="5012"/>
    <busStop id="-1116169520" name="Markt" lane="-96294232_0" startPos="22.87" endPos="37.87" friendlyPos="true" lines="5014 5002"/>
    <busStop id="-1116169543" name="Bf. Lüneburg (ZOB)" lane="-332577351_0" startPos="0.00" endPos="7.70" friendlyPos="true" lines="5005"/>
    <busStop id="-1116252422" name="Wallstraße (Theater)" lane="-96306840#0_0" startPos="27.95" endPos="35.45" friendlyPos="true" lines="5015 5011 5009 5003 5005 5007 5200"/>
    <busStop id="-1181280584" name="Kefersteinstraße (UNI)" lane="-102809770#1_0" startPos="0.00" endPos="7.50" friendlyPos="true" lines="5012"/>
    <busStop id="-3126301507" name="Bf. Lüneburg (ZOB)" lane="-332577351_0" startPos="0.00" endPos="3.74" friendlyPos="true" lines="5200"/>
    <busStop id="-3211150433" name="Stadttheater" lane="-115597416#1_0" startPos="13.92" endPos="28.92" friendlyPos="true" lines="5201"/>
    <busStop id="1115656880" name="Am Sande" lane="36335706_0" startPos="3.21" endPos="18.21" friendlyPos="true" lines="5015 5012 5011 5600 5201 5700 5003 5007"/>
    <busStop id="1115656884" name="Am Sande" lane="36335706_0" startPos="9.68" endPos="17.18" friendlyPos="true" lines="5100"/>
    <busStop id="1115656902" name="Am Sande" lane="96294225_0" startPos="0.43" endPos="12.72" friendlyPos="true" lines="5014 5013 5009 5002 5005 5200"/>
    <busStop id="1116169495" name="Bf. Lüneburg (ZOB)" lane="26945311#1_0" startPos="0.72" endPos="15.72" friendlyPos="true" lines="5009 5002"/>
    <busStop id="1116169501" name="Bf. Lüneburg (ZOB)" lane="-155467734_0" startPos="0.00" endPos="11.00" friendlyPos="true" lines="5006 5007"/>
    <busStop id="1116169505" name="Bf. Lüneburg (ZOB)" lane="26945311#1_0" startPos="0.72" endPos="15.72" friendlyPos="true" lines="5300 5007"/>
    <busStop id="1116169506" name="Bf. Lüneburg (ZOB)" lane="-155467734_0" startPos="0.00" endPos="11.00" friendlyPos="true" lines="5013 5012 5009 5010"/>
    <busStop id="1116169525" name="Bf. Lüneburg (ZOB)" lane="-155467734_0" startPos="0.00" endPos="11.00" friendlyPos="true" lines="5015 5005"/>
    <busStop id="1116169527" name="Bf. Lüneburg (ZOB)" lane="26945311#1_0" startPos="0.72" endPos="15.72" friendlyPos="true" lines="5003"/>
    <busStop id="1116169531" name="Bf. Lüneburg (ZOB)" lane="-155467734_0" startPos="0.00" endPos="11.00" friendlyPos="true"/>
    <busStop id="1116169543" name="Bf. Lüneburg (ZOB)" lane="26945311#1_0" startPos="0.72" endPos="15.72" friendlyPos="true" lines="5015"/>
    <busStop id="1116252423" name="Wallstraße (Theater)" lane="96306840#1_0" startPos="26.93" endPos="41.93" friendlyPos="true" lines="5015 5011 5600 5700 5003 5007"/>
    <busStop id="1116252424" name="Rathaus" lane="39258214_0" startPos="80.68" endPos="88.18" friendlyPos="true" lines="5014 5013 5009 5002 5005 5200"/>
    <busStop id="114242594" name="Lüneburg" lane="24808934_0" startPos="0.00" endPos="156.64" friendlyPos="true">
        <access lane="32855776_0" pos="0.00" length="13.32" friendlyPos="1"/>
        <access lane="406400539#0_0" pos="0.00" length="7.76" friendlyPos="1"/>
        <access lane="406400542#0_0" pos="0.20" length="13.23" friendlyPos="1"/>
        <access lane="406400542#1_0" pos="1.53" length="6.55" friendlyPos="1"/>
        <access lane="815869036_0" pos="17.26" length="12.32" friendlyPos="1"/>
    </busStop>
    <busStop id="1181280851" name="Rotes Tor" lane="12136260#1_0" startPos="36.33" endPos="43.50" friendlyPos="true" lines="5012"/>
    <busStop id="1389308865" name="Bf. Lüneburg (ZOB)" lane="124977960_0" startPos="0.00" endPos="7.50" friendlyPos="true"/>
    <busStop id="268637627" name="Bf. Lüneburg (ZOB)" lane="26945311#1_0" startPos="0.72" endPos="15.72" friendlyPos="true"/>
    <busStop id="268637630" name="Bf. Lüneburg (ZOB)" lane="-96306841_0" startPos="0.00" endPos="9.96" friendlyPos="true"/>
    <busStop id="305721264" name="Lüneburg" lane="24808619#0_0" startPos="0.00" endPos="136.55" friendlyPos="true" lines="RE83">
        <access lane="27728397#2_0" pos="2.58" length="5.59" friendlyPos="1"/>
        <access lane="392247853_0" pos="5.68" length="11.24" friendlyPos="1"/>
        <access lane="392265502#1_0" pos="0.20" length="8.09" friendlyPos="1"/>
        <access lane="406400534_0" pos="0.00" length="7.78" friendlyPos="1"/>
        <access lane="406400541#1_0" pos="1.51" length="1.63" friendlyPos="1"/>
    </busStop>
    <busStop id="3126301507" name="Bf. Lüneburg (ZOB)" lane="26945311#1_0" startPos="0.72" endPos="15.72" friendlyPos="true" lines="5014 5011"/>
    <busStop id="3136293740" name="Clamartpark" lane="328178779_0" startPos="37.88" endPos="52.88" friendlyPos="true"/>
    <busStop id="347321889" name="Lüneburg" lane="107583219#1_0" startPos="0.00" endPos="114.55" friendlyPos="true" lines="Bleckeder Kleinbahn: Lüneburg =&gt; Bleckede">
        <access lane="27728397#1_0" pos="7.27" length="5.25" friendlyPos="1"/>
        <access lane="392265502#1_0" pos="0.20" length="9.10" friendlyPos="1"/>
        <access lane="406400534_0" pos="0.00" length="8.86" friendlyPos="1"/>
        <access lane="406400541#0_0" pos="0.00" length="1.91" friendlyPos="1"/>
        <access lane="456801530#1_0" pos="1.75" length="9.10" friendlyPos="1"/>
    </busStop>
    <busStop id="347321892" name="Lüneburg" lane="32855180_0" startPos="0.00" endPos="143.01" friendlyPos="true">
        <access lane="32855777_0" pos="0.00" length="11.16" friendlyPos="1"/>
        <access lane="392247853_0" pos="0.00" length="15.71" friendlyPos="1"/>
        <access lane="406400538#0_0" pos="0.00" length="8.20" friendlyPos="1"/>
        <access lane="406400539#0_0" pos="2.44" length="13.86" friendlyPos="1"/>
        <access lane="406400539#1_0" pos="2.71" length="2.50" friendlyPos="1"/>
    </busStop>
    <busStop id="3594368123" name="Lüneburg" lane="32856147#1_0" startPos="0.00" endPos="188.22" friendlyPos="true" lines="RB31">
        <access lane="-297225624#1_0" pos="24.53" length="23.98" friendlyPos="1"/>
        <access lane="209380140#10_0" pos="0.18" length="48.65" friendlyPos="1"/>
        <access lane="27496690#1_0" pos="30.89" length="45.68" friendlyPos="1"/>
        <access lane="32856783#1_0" pos="47.59" length="20.98" friendlyPos="1"/>
        <access lane="56310618#2_0" pos="0.10" length="43.93" friendlyPos="1"/>
    </busStop>
    <busStop id="3594368125" name="Lüneburg" lane="27822819_0" startPos="0.00" endPos="179.07" friendlyPos="true" lines="RB32">
        <access lane="-297225624#1_0" pos="24.17" length="13.78" friendlyPos="1"/>
        <access lane="209380140#10_0" pos="32.01" length="40.56" friendlyPos="1"/>
        <access lane="209380140#11_0" pos="2.98" length="41.05" friendlyPos="1"/>
        <access lane="32856783#1_0" pos="47.95" length="10.78" friendlyPos="1"/>
        <access lane="56310618#2_0" pos="0.10" length="40.52" friendlyPos="1"/>
    </busStop>
    <busStop id="371334276" name="Lüneburg" lane="460743688#1_0" startPos="0.00" endPos="120.48" friendlyPos="true" lines="ICE 26 IC 26.1">
        <access lane="27728397#0_0" pos="7.02" length="15.14" friendlyPos="1"/>
        <access lane="32855777_0" pos="0.00" length="11.22" friendlyPos="1"/>
        <access lane="406400539#0_0" pos="0.00" length="3.19" friendlyPos="1"/>
        <access lane="406400539#1_0" pos="0.00" length="14.35" friendlyPos="1"/>
        <access lane="406400542#1_0" pos="1.53" length="9.66" friendlyPos="1"/>
    </busStop>
    <busStop id="798769574" name="Bf. Lüneburg (ZOB)" lane="-155467734_0" startPos="0.00" endPos="11.00" friendlyPos="true" lines="5004"/>
</additional>
