<?xml version="1.0" encoding="UTF-8"?>
<!-- generated on 2022-02-03 13:58:45.183306 by $Id: ptlines2flows.py v1_3_1+0313-ccb31df3eb jakob.erdmann@dlr.de 2019-09-02 13:26:32 +0200 $ v1_11_0+0000-d32ff7d52a3
  options: -n osm.net.xml -e 3600 -p 600 <doubleminus>random-begin <doubleminus>seed 42 <doubleminus>ptstops osm_stops.add.xml <doubleminus>ptlines osm_ptlines.xml -o osm_pt.rou.xml <doubleminus>ignore-errors <doubleminus>vtype-prefix pt_ <doubleminus>stopinfos-file stopinfos.xml <doubleminus>routes-file vehroutes.xml <doubleminus>trips-file trips.trips.xml <doubleminus>min-stops 0 <doubleminus>extend-to-fringe <doubleminus>verbose
-->
<routes xmlns:xsi="http://www.w3.org/2001/XMLSchema-instance" xsi:noNamespaceSchemaLocation="http://sumo.dlr.de/xsd/routes_file.xsd">
    <vType id="pt_bus" vClass="bus"/>
    <vType id="pt_tram" vClass="tram"/>
    <vType id="pt_train" vClass="rail"/>
    <vType id="pt_subway" vClass="rail_urban"/>
    <vType id="pt_light_rail" vClass="rail_urban"/>
    <vType id="pt_monorail" vClass="rail"/>
    <vType id="pt_trolleybus" vClass="bus"/>
    <vType id="pt_aerialway" vClass="bus"/>
    <vType id="pt_ferry" vClass="ship"/>
    <route id="pt_bus_5014:1" edges="303800726 23389873 23390822" >
    </route>
    <route id="pt_bus_5014:2" edges="303800726 23389873 23390822" >
    </route>
    <route id="pt_train_ICE_26:0" edges="24808934" >
        <stop busStop="114242594" duration="20" until="45.0"/> <!-- Lüneburg -->
    </route>
    <route id="pt_bus_5015:3" edges="-155467734 26945309#3 26945309#4 317130966 27107042 38851173 369711987 23903578" >
        <stop busStop="1116169525" duration="20" until="42.0"/> <!-- Bf. Lüneburg (ZOB) -->
    </route>
    <route id="pt_train_ICE_26:2" edges="24808934" >
        <stop busStop="114242594" duration="20" until="45.0"/> <!-- Lüneburg -->
    </route>
    <route id="pt_train_Bleckeder_Kleinbahn:_Lüneburg_=_Bleckede:0" edges="107583219#1 32855184#1" >
        <stop busStop="347321889" duration="20" until="31.0"/> <!-- Lüneburg -->
    </route>
    <route id="pt_bus_5013:4" edges="-155467734" >
        <stop busStop="1116169506" duration="20" until="180.0"/> <!-- Bf. Lüneburg (ZOB) -->
    </route>
    <route id="pt_bus_5002:1" color="red" edges="303800726 23389873 23390822" >
    </route>
    <route id="pt_train_RE3:0" edges="32855180" >
        <stop busStop="347321892" duration="20" until="39.0"/> <!-- Lüneburg -->
    </route>
    <route id="pt_bus_5013:3" edges="-155467734 26945309#3 26945309#4 317130966 27107042 -118607900 -194163682 -390705309#1 -390705309#0 -411014865 42992977#1" >
        <stop busStop="1116169506" duration="20" until="151.0"/> <!-- Bf. Lüneburg (ZOB) -->
    </route>
    <route id="pt_train_ICE_26:1" edges="145893134#0 145893134#1 316263151 460743688#1 460743203#1" >
        <stop busStop="371334276" duration="20" until="250.0"/> <!-- Lüneburg -->
    </route>
    <route id="pt_bus_5015:4" edges="-155542976 -369855809 -29084716#2 697574936#0 915457925#0 915457925#1 26945311#1" >
        <stop busStop="1116169543" duration="20" until="281.0"/> <!-- Bf. Lüneburg (ZOB) -->
    </route>
    <route id="pt_bus_5002:4" color="red" edges="303800726 23389873 23390822" >
    </route>
    <route id="pt_bus_5002:5" color="red" edges="303800726 23389873 23390822" >
    </route>
    <route id="pt_bus_5012:2" edges="-155467734 26945309#3 26945309#4 317130966 27107042 38851173 369711987 23903578" >
        <stop busStop="1116169506" duration="20" until="181.0"/> <!-- Bf. Lüneburg (ZOB) -->
    </route>
    <route id="pt_bus_5002:6" color="red" edges="303800726 23389873 23390822" >
    </route>
    <route id="pt_bus_5300:0" edges="26945311#1 314292899 124977959#0 124977959#1 124977959#2 124977959#3 29084716#1 155542968 155542976" >
        <stop busStop="1116169505" duration="20" until="69.0"/> <!-- Bf. Lüneburg (ZOB) -->
    </route>
    <route id="pt_bus_5001:0" edges="80152409 392719989 118607895 12273115 143183287 391921422 23918490#1 23918493 393505712#0 -23918281#0 46191510#0 -124977959#4 -124977959#2 -124977959#1 -124977959#0 -124977960 -332577351" >
        <stop busStop="-1116169491" duration="20" until="225.0"/> <!-- Bf. Lüneburg (ZOB) -->
    </route>
    <route id="pt_bus_5012:1" edges="-102809770#1 29317738#1 -24694092#1 46191489#0 390709999 143183286 186198379 12273115 143183287 391921422 23918490#1 23918493 393505712#0 -23918281#0 27496690#0 27496690#1 83687773 118607900 38851173 369711987 23903578" >
        <stop busStop="-1181280584" duration="20" until="31.0"/> <!-- Kefersteinstraße (UNI) -->
    </route>
    <route id="pt_bus_5006:1" edges="-155467734 26945309#3 26945309#4 317130966 27107042 -118607900 -194163682 -390705309#1 -390705309#0 -411014865 42992977#1" >
        <stop busStop="1116169501" duration="20" until="150.0"/> <!-- Bf. Lüneburg (ZOB) -->
    </route>
    <route id="pt_bus_5014:3" edges="-155542976 -369855809 -29084716#2 697574936#0 915457925#0 915457925#1 26945311#1 -155467734 26945309#3 26945309#4 317130966 27107042 -118607900 -194163682 -390705309#1 -390705309#0 -411014865 42992977#1" >
        <stop busStop="3126301507" duration="20" until="160.0"/> <!-- Bf. Lüneburg (ZOB) -->
    </route>
    <route id="pt_bus_5014:7" edges="303800726 23389873 23390822" >
    </route>
    <route id="pt_bus_5001:1" edges="-332577351 -297225622 -915457925#0 -697574936#1 -46191510#1 -11627689 -393505712#1 -23918493 -23918490#1 -23918490#0 -143183287 -12273115 -118607895 -392719989 -80152409" >
        <stop busStop="-1116169491" duration="20" until="46.0"/> <!-- Bf. Lüneburg (ZOB) -->
    </route>
    <route id="pt_bus_5010:0" edges="-155542976 -369855809 -29084716#2 -124977959#4 -124977959#2 -124977959#1 -124977959#0 -155467732#0 -155467734" >
        <stop busStop="1116169506" duration="20" until="195.0"/> <!-- Bf. Lüneburg (ZOB) -->
    </route>
    <route id="pt_bus_5009:1" edges="-155467734 26945309#3 26945309#4 317130966 27107042 -118607900 -194163682 -390705309#1 -390705309#0 -411014865 42992977#1" >
        <stop busStop="1116169506" duration="20" until="110.0"/> <!-- Bf. Lüneburg (ZOB) -->
    </route>
    <route id="pt_bus_5010:7" edges="-155467734 -96306841 314292899 124977959#0 124977959#1 124977959#2 124977959#3 29084716#1 155542968 155542976" >
        <stop busStop="1116169506" duration="20" until="68.0"/> <!-- Bf. Lüneburg (ZOB) -->
    </route>
    <route id="pt_bus_5015:1" edges="26945311#1 -155467734 -297225622 -915457925#0 -697574936#1 -46191510#1 -11627689 23918286#0 23918286#2 23918356 23918359 118607888 -30537708 -11818116 13200874#0 13200874#1 36335706 123546523#0 123546523#1 173922269#0 173922269#1 -15021023 13215491 96306840#1 96306832#1 96306832#2" >
        <stop busStop="1116169543" duration="20" until="43.0"/> <!-- Bf. Lüneburg (ZOB) -->
        <stop busStop="1115656880" duration="20" until="272.0"/> <!-- Am Sande -->
        <stop busStop="1116252423" duration="20" until="436.0"/> <!-- Wallstraße (Theater) -->
    </route>
    <route id="pt_bus_5010:1" edges="-155542976 -369855809 -29084716#2 -124977959#4 -124977959#2 -124977959#1 -124977959#0 -155467732#0 -155467734" >
        <stop busStop="1116169506" duration="20" until="265.0"/> <!-- Bf. Lüneburg (ZOB) -->
    </route>
    <route id="pt_train_RE3:1" edges="24808934" >
        <stop busStop="114242594" duration="20" until="45.0"/> <!-- Lüneburg -->
    </route>
    <route id="pt_bus_5013:0" edges="-155467734 -297225622 -915457925#0 -697574936#1 -46191510#1 -11627689 23918286#0 23918286#2 23918356 23918359 118607888 -30537708 -11818116 13200874#0 13200874#1 96294225 -36335707#0 -13200874#1 -13200874#0 11818116 30537708 -118607888 -23918359 -29408065#3 -29408065#2 -29408065#1 -29408065#0 -29408064 -155364235 26832251 118607905 156402089#0 156402089#1 23390804 23390822" >
        <stop busStop="1116169506" duration="20" until="43.0"/> <!-- Bf. Lüneburg (ZOB) -->
        <stop busStop="1115656902" duration="20" until="226.0"/> <!-- Am Sande -->
    </route>
    <route id="pt_bus_5010:8" edges="-155467734 -96306841 314292899 124977959#0 124977959#1 124977959#2 124977959#3 29084716#1 155542968 155542976" >
        <stop busStop="1116169506" duration="20" until="138.0"/> <!-- Bf. Lüneburg (ZOB) -->
    </route>
    <route id="pt_bus_5010:2" edges="-155542976 -369855809 -29084716#2 -124977959#4 -124977959#2 -124977959#1 -124977959#0 -155467732#0 -155467734" >
        <stop busStop="1116169506" duration="20" until="335.0"/> <!-- Bf. Lüneburg (ZOB) -->
    </route>
    <route id="pt_bus_5013:1" edges="-155467734 -297225622 -915457925#0 -697574936#1 -46191510#1 -11627689 23918286#0 23918286#2 23918356 23918359 118607888 -30537708 -11818116 13200874#0 13200874#1 96294225 -36335707#0 -13200874#1 -13200874#0 11818116 30537708 -118607888 -23918359 -29408065#3 -29408065#2 -29408065#1 -29408065#0 -29408064 -155364235 26832251 118607905 156402089#0 156402089#1 23390804 23390822" >
        <stop busStop="1116169506" duration="20" until="81.0"/> <!-- Bf. Lüneburg (ZOB) -->
        <stop busStop="1115656902" duration="20" until="318.0"/> <!-- Am Sande -->
    </route>
    <route id="pt_bus_5010:3" edges="-155542976 -369855809 -29084716#2 -124977959#4 -124977959#2 -124977959#1 -124977959#0 -155467732#0 -155467734" >
        <stop busStop="1116169506" duration="20" until="368.0"/> <!-- Bf. Lüneburg (ZOB) -->
    </route>
    <route id="pt_train_RB31:0" edges="32856147#1" >
        <stop busStop="3594368123" duration="20" until="53.0"/> <!-- Lüneburg -->
    </route>
    <route id="pt_train_ICE_26:4" edges="24808934" >
        <stop busStop="114242594" duration="20" until="45.0"/> <!-- Lüneburg -->
    </route>
    <route id="pt_bus_5010:9" edges="-155467734 -96306841 314292899 124977959#0 124977959#1 124977959#2 124977959#3 29084716#1 155542968 155542976" >
        <stop busStop="1116169506" duration="20" until="207.0"/> <!-- Bf. Lüneburg (ZOB) -->
    </route>
    <route id="pt_bus_5200:0" color="red" edges="-332577351 26945309#3 26945309#4 317130966 27107042 -118607900 -194163682 -390705309#1 -390705309#0 -411014865 42992977#1" >
        <stop busStop="-1116169491" duration="20" until="47.0"/> <!-- Bf. Lüneburg (ZOB) -->
    </route>
    <route id="pt_train_RE83:0" color="41,92,170" edges="331708951#0 331708951#1 24808619#0" >
        <stop busStop="305721264" duration="20" until="72.0"/> <!-- Lüneburg -->
    </route>
    <route id="pt_bus_5010:4" edges="-155542976 -369855809 -29084716#2 -124977959#4 -124977959#2 -124977959#1 -124977959#0 -155467732#0 -155467734" >
        <stop busStop="1116169506" duration="20" until="399.0"/> <!-- Bf. Lüneburg (ZOB) -->
    </route>
    <route id="pt_bus_5012:3" edges="-102809770#1 29317738#1 -24694092#1 46191489#0 390709999 143183286 186198379 12273115 143183287 391921422 23918490#1 23918493 393505712#0 -23918281#0 46191510#0 -124977959#4 -124977959#2 -124977959#1 -124977959#0 -155467732#0 -155467734" >
        <stop busStop="-1181280584" duration="20" until="31.0"/> <!-- Kefersteinstraße (UNI) -->
    </route>
    <route id="pt_train_RB32:0" edges="27822819 656092301#1 27822826#1" >
        <stop busStop="3594368125" duration="20" until="51.0"/> <!-- Lüneburg -->
    </route>
    <route id="pt_bus_5012:0" edges="-155542976 -369855809 -29084716#2 -124977959#4 -124977959#2 -124977959#1 -124977959#0 -124977960 -332577351 -297225622 -915457925#0 -697574936#1 -46191510#1 -11627689 23918286#0 23918286#2 23918356 23918359 118607888 -30537708 -11818116 13200874#0 13200874#1 36335706 123546523#0 123546523#1 173922269#0 173922269#1 -15021023 -328178779 -549336714 915205870#0 12136260#1 -549336711 102809770#0 102809770#1" >
        <stop busStop="-1116169505" duration="20" until="82.0"/> <!-- Bf. Lüneburg (ZOB) -->
        <stop busStop="1115656880" duration="20" until="382.0"/> <!-- Am Sande -->
        <stop busStop="1181280851" duration="20" until="549.0"/> <!-- Rotes Tor -->
    </route>
    <route id="pt_train_ICE_25:0" edges="24808934" >
        <stop busStop="114242594" duration="20" until="95.0"/> <!-- Lüneburg -->
    </route>
    <route id="pt_bus_5010:5" edges="-155542976 -369855809 -29084716#2 -124977959#4 -124977959#2 -124977959#1 -124977959#0 -155467732#0 -155467734" >
        <stop busStop="1116169506" duration="20" until="431.0"/> <!-- Bf. Lüneburg (ZOB) -->
    </route>
    <route id="pt_bus_5006:0" edges="-42992977#1 -23389835#0 -186632793#4 -186632793#3 -186632793#2 -186632793#0 -96311855#2 -23918281#0 46191510#0 -124977959#4 -124977959#2 -124977959#1 -124977959#0 -155467732#0 -155467734" >
        <stop busStop="1116169501" duration="20" until="563.0"/> <!-- Bf. Lüneburg (ZOB) -->
    </route>
    <route id="pt_bus_5014:0" edges="-155542976 -369855809 -29084716#2 697574936#0 915457925#0 915457925#1 26945311#1 -155467734 -297225622 -915457925#0 -697574936#1 -46191510#1 -11627689 23918286#0 23918286#2 23918356 23918359 118607888 -30537708 -11818116 13200874#0 13200874#1 96294225 -36335707#0 -13200874#1 -13200874#0 11818116 30537708 -118607888 -23918359 -29408065#3 -29408065#2 -29408065#1 -29408065#0 -29408064 -155364235 26832251 118607905 156402089#0 156402089#1 23390804 -96294232 -303800726" >
        <stop busStop="3126301507" duration="20" until="129.0"/> <!-- Bf. Lüneburg (ZOB) -->
        <stop busStop="1115656902" duration="20" until="402.0"/> <!-- Am Sande -->
        <stop busStop="-1116169520" duration="20" until="664.0"/> <!-- Markt -->
    </route>
    <route id="pt_train_RE83:1" color="41,92,170" edges="24808619#0" >
        <stop busStop="305721264" duration="20" until="34.0"/> <!-- Lüneburg -->
    </route>
    <route id="pt_bus_5600:0" edges="-332577351 -297225622 -915457925#0 -697574936#1 -46191510#1 -11627689 23918286#0 23918286#2 23918356 23918359 118607888 -30537708 -11818116 13200874#0 13200874#1 36335706 123546523#0 123546523#1 173922269#0 173922269#1 -15021023 13215491 96306840#1 96306832#1 96306832#2" >
        <stop busStop="-1116169499" duration="20" until="44.0"/> <!-- Bf. Lüneburg (ZOB) -->
        <stop busStop="1115656880" duration="20" until="376.0"/> <!-- Am Sande -->
        <stop busStop="1116252423" duration="20" until="540.0"/> <!-- Wallstraße (Theater) -->
    </route>
    <route id="pt_bus_5010:6" edges="-155542976 -369855809 -29084716#2 -124977959#4 -124977959#2 -124977959#1 -124977959#0 -155467732#0 -155467734" >
        <stop busStop="1116169506" duration="20" until="462.0"/> <!-- Bf. Lüneburg (ZOB) -->
    </route>
    <route id="pt_train_RB31:1" edges="32856147#0 32856147#1" >
        <stop busStop="3594368123" duration="20" until="166.0"/> <!-- Lüneburg -->
    </route>
    <route id="pt_bus_5015:2" edges="-96306832#2 -96306832#1 -96306832#0 -96306840#0 15021023 -173922269#1 -173922269#0 -123546523#1 -123546523#0 -96306828 -13200874#1 -13200874#0 11818116 30537708 -118607888 -23918359 -23918356 -23918286#2 -23918286#1 -23918281#0 46191510#0 -124977959#4 -124977959#2 -124977959#1 -124977959#0 -155467732#0 -155467734" >
        <stop busStop="-1116252422" duration="20" until="76.0"/> <!-- Wallstraße (Theater) -->
        <stop busStop="-1115656884" duration="20" until="278.0"/> <!-- Am Sande -->
        <stop busStop="1116169525" duration="20" until="692.0"/> <!-- Bf. Lüneburg (ZOB) -->
    </route>
    <route id="pt_bus_5100:0" edges="-96306828 -13200874#1 -13200874#0 11818116 30537708 -118607888 -23918359 -23918356 -23918286#2 -23918286#1 -23918281#0 46191510#0 -124977959#4 -124977959#2 -124977959#1 -124977959#0 -124977960 -332577351 -96306841 314292899 124977959#0 124977959#1 124977959#2 124977959#3 29084716#1 155542968 155542976" >
        <stop busStop="-1115656884" duration="20" until="75.0"/> <!-- Am Sande -->
        <stop busStop="-1116169491" duration="20" until="485.0"/> <!-- Bf. Lüneburg (ZOB) -->
    </route>
    <route id="pt_bus_5110:0" edges="-96306828 -13200874#1 -13200874#0 11818116 30537708 -118607888 -23918359 -23918356 -23918286#2 -23918286#1 -23918281#0 46191510#0 -124977959#4 -124977959#2 -124977959#1 -124977959#0 -124977960 -332577351 -96306841 314292899 124977959#0 124977959#1 124977959#2 124977959#3 29084716#1 155542968 155542976" >
        <stop busStop="-1115656884" duration="20" until="107.0"/> <!-- Am Sande -->
        <stop busStop="-1116169491" duration="20" until="515.0"/> <!-- Bf. Lüneburg (ZOB) -->
    </route>
    <route id="pt_train_ICE_26:7" edges="24808934" >
        <stop busStop="114242594" duration="20" until="45.0"/> <!-- Lüneburg -->
    </route>
    <route id="pt_bus_5013:2" edges="-155467734 -297225622 -915457925#0 -697574936#1 -46191510#1 -11627689 23918286#0 23918286#2 23918356 23918359 118607888 -30537708 -11818116 13200874#0 13200874#1 96294225 -36335707#0 -13200874#1 -13200874#0 11818116 30537708 -118607888 -23918359 -29408065#3 -29408065#2 -29408065#1 -29408065#0 -29408064 -155364235 26832251 118607905 156402089#0 156402089#1 23390804 23390822 39258214 35470096#0 35470096#1 35470096#2 1012086133 83687778 -18925169 -899418894 -85220995#0" >
        <stop busStop="1116169506" duration="20" until="117.0"/> <!-- Bf. Lüneburg (ZOB) -->
        <stop busStop="1115656902" duration="20" until="396.0"/> <!-- Am Sande -->
        <stop busStop="1116252424" duration="20" until="673.0"/> <!-- Rathaus -->
    </route>
    <route id="pt_bus_5201:0" color="red" edges="-332577351 -297225622 -915457925#0 -697574936#1 -46191510#1 -11627689 23918286#0 23918286#2 23918356 23918359 118607888 -30537708 -11818116 13200874#0 13200874#1 36335706 123546523#0 123546523#1 173922269#0 173922269#1 -15021023 -328178779 -549336714 915205870#0 -391923088 -34569965 -115597416#1 -115597416#0 -391923087 -31540126" >
        <stop busStop="-1116169491" duration="20" until="46.0"/> <!-- Bf. Lüneburg (ZOB) -->
        <stop busStop="1115656880" duration="20" until="397.0"/> <!-- Am Sande -->
        <stop busStop="-3211150433" duration="20" until="589.0"/> <!-- Stadttheater -->
    </route>
    <route id="pt_bus_5011:2" edges="26945311#1 -155467734 -297225622 -915457925#0 -697574936#1 -46191510#1 -11627689 23918286#0 23918286#2 23918356 23918359 118607888 -30537708 -11818116 13200874#0 13200874#1 36335706 123546523#0 123546523#1 173922269#0 173922269#1 -15021023 13215491 96306840#1 96306832#1 96306832#2" >
        <stop busStop="3126301507" duration="20" until="89.0"/> <!-- Bf. Lüneburg (ZOB) -->
        <stop busStop="1115656880" duration="20" until="464.0"/> <!-- Am Sande -->
        <stop busStop="1116252423" duration="20" until="629.0"/> <!-- Wallstraße (Theater) -->
    </route>
    <route id="pt_bus_5015:5" edges="-96306832#2 -96306832#1 -96306832#0 -96306840#0 15021023 -173922269#1 -173922269#0 -123546523#1 -123546523#0 -96306828 -13200874#1 -13200874#0 11818116 30537708 -118607888 -23918359 -23918356 -23918286#2 -23918286#1 -23918281#0 46191510#0 -124977959#4 -124977959#2 -124977959#1 -124977959#0 -155467732#0 -155467734 26945309#3 26945309#4 317130966 27107042 38851173 369711987 23903578" >
        <stop busStop="-1116252422" duration="20" until="98.0"/> <!-- Wallstraße (Theater) -->
        <stop busStop="-1115656884" duration="20" until="301.0"/> <!-- Am Sande -->
        <stop busStop="1116169525" duration="20" until="720.0"/> <!-- Bf. Lüneburg (ZOB) -->
    </route>
    <route id="pt_bus_5777:0" edges="-332577351 26945309#3 26945309#4 317130966 27107042 -118607900 -194163682 -390705309#1 -390705309#0 -411014865 42992977#1" >
        <stop busStop="-1116169491" duration="20" until="186.0"/> <!-- Bf. Lüneburg (ZOB) -->
    </route>
    <route id="pt_bus_5015:0" edges="-155542976 -369855809 -29084716#2 697574936#0 915457925#0 915457925#1 26945311#1 -155467734 -297225622 -915457925#0 -697574936#1 -46191510#1 -11627689 23918286#0 23918286#2 23918356 23918359 118607888 -30537708 -11818116 13200874#0 13200874#1 36335706 123546523#0 123546523#1 173922269#0 173922269#1 -15021023 13215491 96306840#1 96306832#1 96306832#2" >
        <stop busStop="1116169543" duration="20" until="190.0"/> <!-- Bf. Lüneburg (ZOB) -->
        <stop busStop="1115656880" duration="20" until="608.0"/> <!-- Am Sande -->
        <stop busStop="1116252423" duration="20" until="772.0"/> <!-- Wallstraße (Theater) -->
    </route>
    <route id="pt_bus_5005:0" edges="-42992977#1 -23389835#0 -186632793#4 -186632793#3 -186632793#2 -186632793#0 -96311855#2 -23918281#0 46191510#0 -124977959#4 -124977959#2 -124977959#1 -124977959#0 -124977960 -332577351 26945309#3 26945309#4 317130966 27107042 -118607900 -194163682 -390705309#1 -390705309#0 -411014865 42992977#1" >
        <stop busStop="-1116169543" duration="20" until="282.0"/> <!-- Bf. Lüneburg (ZOB) -->
    </route>
    <route id="pt_train_IC_26.1:1" edges="24808934" >
        <stop busStop="114242594" duration="20" until="45.0"/> <!-- Lüneburg -->
    </route>
    <route id="pt_train_ICE_26:3" edges="145893134#0 145893134#1 316263151 460743688#1 460743203#1" >
        <stop busStop="371334276" duration="20" until="250.0"/> <!-- Lüneburg -->
    </route>
    <route id="pt_bus_5010:10" edges="-155467734 -96306841 314292899 124977959#0 124977959#1 124977959#2 124977959#3 29084716#1 155542968 155542976" >
        <stop busStop="1116169506" duration="20" until="105.0"/> <!-- Bf. Lüneburg (ZOB) -->
    </route>
    <route id="pt_bus_5900:0" edges="-96306828 -13200874#1 -13200874#0 11818116 30537708 -118607888 -23918359 -23918356 -23918286#2 -23918286#1 -23918281#0 46191510#0 -124977959#4 -124977959#2 -124977959#1 -124977959#0 -124977960 -332577351 26945309#3 26945309#4 317130966 27107042 38851173 369711987 23903578" >
        <stop busStop="-1115656884" duration="20" until="75.0"/> <!-- Am Sande -->
        <stop busStop="-1116169499" duration="20" until="318.0"/> <!-- Bf. Lüneburg (ZOB) -->
    </route>
    <route id="pt_bus_5015:7" edges="-155542976 -369855809 -29084716#2 697574936#0 915457925#0 915457925#1 26945311#1" >
        <stop busStop="1116169543" duration="20" until="480.0"/> <!-- Bf. Lüneburg (ZOB) -->
    </route>
    <route id="pt_bus_5012:4" edges="-155542976 -369855809 -29084716#2 -124977959#4 -124977959#2 -124977959#1 -124977959#0 -124977960 -332577351 -297225622 -915457925#0 -697574936#1 -46191510#1 -11627689 23918286#0 23918286#2 23918356 23918359 118607888 -30537708 -11818116 13200874#0 13200874#1 36335706 123546523#0 123546523#1 173922269#0 173922269#1 -15021023 -328178779 -549336714 915205870#0 12136260#1 -549336711 102809770#0 102809770#1" >
        <stop busStop="-1116169505" duration="20" until="95.0"/> <!-- Bf. Lüneburg (ZOB) -->
        <stop busStop="1115656880" duration="20" until="544.0"/> <!-- Am Sande -->
        <stop busStop="1181280851" duration="20" until="710.0"/> <!-- Rotes Tor -->
    </route>
    <route id="pt_bus_5009:0" edges="26945311#1 -155467734 -297225622 -915457925#0 -697574936#1 -46191510#1 -11627689 23918286#0 23918286#2 23918356 23918359 118607888 -30537708 -11818116 13200874#0 13200874#1 96294225 -36335707#0 -13200874#1 -13200874#0 11818116 30537708 -118607888 -23918359 -29408065#3 -29408065#2 -29408065#1 -29408065#0 -29408064 -155364235 26832251 118607905 156402089#0 156402089#1 23390804 23390822 39258214 35470096#0 35470096#1 35470096#2 1012086133 83687778 -18925169 -899418894 -85220995#0" >
        <stop busStop="1116169495" duration="20" until="36.0"/> <!-- Bf. Lüneburg (ZOB) -->
        <stop busStop="1115656902" duration="20" until="421.0"/> <!-- Am Sande -->
        <stop busStop="1116252424" duration="20" until="712.0"/> <!-- Rathaus -->
    </route>
    <route id="pt_bus_5700:0" edges="-155542976 -369855809 -29084716#2 -124977959#4 -124977959#2 -124977959#1 -124977959#0 -124977960 -332577351 -297225622 -915457925#0 -697574936#1 -46191510#1 -11627689 23918286#0 23918286#2 23918356 23918359 118607888 -30537708 -11818116 13200874#0 13200874#1 36335706 123546523#0 123546523#1 173922269#0 173922269#1 -15021023 13215491 96306840#1 96306832#1 96306832#2" >
        <stop busStop="-1116169499" duration="20" until="114.0"/> <!-- Bf. Lüneburg (ZOB) -->
        <stop busStop="1115656880" duration="20" until="541.0"/> <!-- Am Sande -->
        <stop busStop="1116252423" duration="20" until="705.0"/> <!-- Wallstraße (Theater) -->
    </route>
    <route id="pt_bus_5003:0" edges="26945311#1 -155467734 -297225622 -915457925#0 -697574936#1 -46191510#1 -11627689 23918286#0 23918286#2 23918356 23918359 118607888 -30537708 -11818116 13200874#0 13200874#1 36335706 123546523#0 123546523#1 173922269#0 173922269#1 -15021023 13215491 96306840#1 96306832#1 96306832#2" >
        <stop busStop="1116169527" duration="20" until="104.0"/> <!-- Bf. Lüneburg (ZOB) -->
        <stop busStop="1115656880" duration="20" until="564.0"/> <!-- Am Sande -->
        <stop busStop="1116252423" duration="20" until="728.0"/> <!-- Wallstraße (Theater) -->
    </route>
    <route id="pt_bus_5100:2" edges="-96306828 -13200874#1 -13200874#0 11818116 30537708 -118607888 -23918359 -23918356 -23918286#2 -23918286#1 -23918281#0 46191510#0 -124977959#4 -124977959#2 -124977959#1 -124977959#0 -124977960 -332577351 -96306841 314292899 124977959#0 124977959#1 124977959#2 124977959#3 29084716#1 155542968 155542976" >
        <stop busStop="-1115656884" duration="20" until="83.0"/> <!-- Am Sande -->
        <stop busStop="-1116169491" duration="20" until="339.0"/> <!-- Bf. Lüneburg (ZOB) -->
    </route>
    <route id="pt_bus_5100:3" edges="-96306828 -13200874#1 -13200874#0 11818116 30537708 -118607888 -23918359 -23918356 -23918286#2 -23918286#1 -23918281#0 46191510#0 -124977959#4 -124977959#2 -124977959#1 -124977959#0 -124977960 -332577351 -96306841 314292899 124977959#0 124977959#1 124977959#2 124977959#3 29084716#1 155542968 155542976" >
        <stop busStop="-1115656884" duration="20" until="115.0"/> <!-- Am Sande -->
        <stop busStop="-1116169491" duration="20" until="368.0"/> <!-- Bf. Lüneburg (ZOB) -->
    </route>
    <route id="pt_train_ICE_26:5" edges="145893134#0 145893134#1 316263151 460743688#1 460743203#1" >
        <stop busStop="371334276" duration="20" until="335.0"/> <!-- Lüneburg -->
    </route>
    <route id="pt_bus_5100:1" edges="-155542976 -369855809 -29084716#2 -124977959#4 -124977959#2 -124977959#1 -124977959#0 -124977960 -332577351 -297225622 -915457925#0 -697574936#1 -46191510#1 -11627689 23918286#0 23918286#2 23918356 23918359 118607888 -30537708 -11818116 13200874#0 13200874#1 36335706" >
        <stop busStop="-1116169491" duration="20" until="247.0"/> <!-- Bf. Lüneburg (ZOB) -->
        <stop busStop="1115656884" duration="20" until="482.0"/> <!-- Am Sande -->
    </route>
    <route id="pt_bus_5011:1" edges="-155542976 -369855809 -29084716#2 697574936#0 915457925#0 915457925#1 26945311#1 -155467734 -297225622 -915457925#0 -697574936#1 -46191510#1 -11627689 23918286#0 23918286#2 23918356 23918359 118607888 -30537708 -11818116 13200874#0 13200874#1 36335706 123546523#0 123546523#1 173922269#0 173922269#1 -15021023 13215491 96306840#1 96306832#1 96306832#2" >
        <stop busStop="3126301507" duration="20" until="254.0"/> <!-- Bf. Lüneburg (ZOB) -->
        <stop busStop="1115656880" duration="20" until="744.0"/> <!-- Am Sande -->
        <stop busStop="1116252423" duration="20" until="908.0"/> <!-- Wallstraße (Theater) -->
    </route>
    <route id="pt_train_ICE_26:6" edges="145893134#0 145893134#1 316263151 460743688#1 460743203#1" >
        <stop busStop="371334276" duration="20" until="420.0"/> <!-- Lüneburg -->
    </route>
    <route id="pt_bus_5200:2" color="red" edges="-332577351 -297225622 -915457925#0 -697574936#1 -46191510#1 -11627689 23918286#0 23918286#2 23918356 23918359 118607888 -30537708 -11818116 13200874#0 13200874#1 96294225 -36335707#0 -13200874#1 -13200874#0 11818116 30537708 -118607888 -23918359 -29408065#3 -29408065#2 -29408065#1 -29408065#0 -29408064 -155364235 26832251 118607905 156402089#0 156402089#1 23390804 23390822 39258214 35470096#0 35470096#1 35470096#2 1012086133 83687778 -18925169 -899418894 -85220995#0" >
        <stop busStop="-1116169491" duration="20" until="63.0"/> <!-- Bf. Lüneburg (ZOB) -->
        <stop busStop="1115656902" duration="20" until="251.0"/> <!-- Am Sande -->
        <stop busStop="1116252424" duration="20" until="558.0"/> <!-- Rathaus -->
    </route>
    <route id="pt_bus_5003:1" edges="26945311#1 -155467734 -297225622 -915457925#0 -697574936#1 -46191510#1 -11627689 23918286#0 23918286#2 23918356 23918359 118607888 -30537708 -11818116 13200874#0 13200874#1 36335706 123546523#0 123546523#1 173922269#0 173922269#1 -15021023 13215491 96306840#1 96306832#1 96306832#2" >
        <stop busStop="1116169527" duration="20" until="105.0"/> <!-- Bf. Lüneburg (ZOB) -->
        <stop busStop="1115656880" duration="20" until="654.0"/> <!-- Am Sande -->
        <stop busStop="1116252423" duration="20" until="818.0"/> <!-- Wallstraße (Theater) -->
    </route>
    <route id="pt_bus_5200:3" color="red" edges="-332577351 -297225622 -915457925#0 -697574936#1 -46191510#1 -11627689 23918286#0 23918286#2 23918356 23918359 118607888 -30537708 -11818116 13200874#0 13200874#1 96294225 -36335707#0 -13200874#1 -13200874#0 11818116 30537708 -118607888 -23918359 -29408065#3 -29408065#2 -29408065#1 -29408065#0 -29408064 -155364235 26832251 118607905 156402089#0 156402089#1 23390804 23390822 39258214 35470096#0 35470096#1 35470096#2 1012086133 83687778 -18925169 -899418894 -85220995#0" >
        <stop busStop="-1116169491" duration="20" until="95.0"/> <!-- Bf. Lüneburg (ZOB) -->
        <stop busStop="1115656902" duration="20" until="341.0"/> <!-- Am Sande -->
        <stop busStop="1116252424" duration="20" until="623.0"/> <!-- Rathaus -->
    </route>