<?xml version="1.0" encoding="UTF-8"?>

<!-- generated on 2022-02-03 13:58:46 by Eclipse SUMO duarouter Version 1.11.0
<configuration xmlns:xsi="http://www.w3.org/2001/XMLSchema-instance" xsi:noNamespaceSchemaLocation="http://sumo.dlr.de/xsd/duarouterConfiguration.xsd">

    <input>
        <net-file value="osm.net.xml"/>
        <route-files value="osm.passenger.trips.xml"/>
    </input>

    <output>
        <output-file value="routes.rou.xml"/>
        <alternatives-output value="routes.rou.alt.xml"/>
    </output>

    <time>
        <begin value="0"/>
        <end value="3600"/>
    </time>

    <report>
        <no-warnings value="true"/>
        <ignore-errors value="true"/>
        <no-step-log value="true"/>
    </report>

</configuration>
-->

<routes xmlns:xsi="http://www.w3.org/2001/XMLSchema-instance" xsi:noNamespaceSchemaLocation="http://sumo.dlr.de/xsd/routes_file.xsd">
    <vType id="veh_passenger" vClass="passenger"/>
    <vehicle id="veh0" type="veh_passenger" depart="0.00" departLane="best">
        <route edges="-345607727 915205869#1 549336714 -549336714 915205870#0 345607727 46191489#0 390709999 143183286 186198379 12273115 143183287 391921422 23918490#1 23918493 393505712#0 -23918281#0 27496690#0 27496690#1 83687773 118607900 38851173 369711987 23903578 -23903578 -369711987 -312590965"/>
    </vehicle>
    <vehicle id="veh1" type="veh_passenger" depart="12.89" departLane="best">
        <route edges="29408065#2 29408065#3 -23918356 -23918286#2 -23918286#1 -23918281#0 27496690#0"/>
    </vehicle>
    <vehicle id="veh3" type="veh_passenger" depart="38.66" departLane="best">
        <route edges="-915457925#0 -697574936#1 -46191510#1 -11627689 23918286#0 23918286#2 23918356 23918359 486972235#0 486972235#1 -11818113#3 -11818113#2 -11818113#1"/>
    </vehicle>
    <vehicle id="veh4" type="veh_passenger" depart="51.55" departLane="best">
        <route edges="-11627689 23918286#0 23918286#2 23918356 -29408065#3 -29408065#2 -29408065#1 -29408065#0"/>
    </vehicle>
    <vehicle id="veh5" type="veh_passenger" depart="64.44" departLane="best">
        <route edges="-27496690#1 -27496690#0 -11627689 -393505712#1 -23918493 -23918490#1 -23918490#0 -143183287 61383017#0 61383017#1 -390709999 -46191489#1 -345607727 915205869#1 549336714 328178779 15021023 19355403#0 19355403#1 19355403#2 19355403#3 19355403#4 19355403#5 19355403#6"/>
    </vehicle>
    <vehicle id="veh7" type="veh_passenger" depart="90.21" departLane="best">
        <route edges="328178779 -328178779 -549336714 915205870#0 345607727 24694092#1 29317738#2 29317738#3"/>
    </vehicle>
    <vehicle id="veh8" type="veh_passenger" depart="103.10" departLane="best">
        <route edges="-486972235#0 -23918359 -23918356 -23918286#2 -23918286#1 -393505712#1 -23918493 -23918490#1 -23918490#0 -143183287 -12273115 -118607895 -392719989 -80152409 -681503599 -29317738#4 -29317738#3 -24694123"/>
    </vehicle>
    <vehicle id="veh10" type="veh_passenger" depart="128.87" departLane="best" departSpeed="max">
        <route edges="-15021019#3 -15021019#2 -15021019#1 -15021019#0 -328178779 -549336714 915205870#0 345607727 46191489#0 390709999 143183286 186198379 12273115 143183287 391921422 23918490#1 23918493 393505712#0 23918286#0 23918286#2 23918356 -29408065#3 -29408065#2 -29408065#1 -29408065#0 -29408064 -155364235 -16893609 17384249#0 -17384249#0"/>
    </vehicle>
    <vehicle id="veh11" type="veh_passenger" depart="141.76" departLane="best">
        <route edges="391923088 345607727 46191489#0 390709999 143183286 186198379 12273115 143183287 391921422 23918490#1 23918493 393505712#0 -23918281#0 27496690#0 27496690#1 83687773 118607900 38851173 369711987 23903578"/>
    </vehicle>
    <vehicle id="veh12" type="veh_passenger" depart="154.65" departLane="best">
        <route edges="345607727 -345607727 -391923088 -34569965 -35046089#1 -35046089#0 -46191496#3 -46191496#0 -13215492#2 -13215492#1 -13215492#0 24221021 30341883#0"/>
    </vehicle>
    <vehicle id="veh14" type="veh_passenger" depart="180.42" departLane="best">
        <route edges="390705309#1 -27496690#1 -27496690#0 -11627689 -393505712#1 -23918493 -23918490#1 -23918490#0 -143183287 143183287 391921422 23918490#1 23918493"/>
    </vehicle>
    <vehicle id="veh16" type="veh_passenger" depart="206.20" departLane="best">
        <route edges="27496690#1 -27496690#1 -27496690#0 -11627689 -393505712#1 -23918493 -23918490#1 -23918490#0 -143183287 -12273115"/>
    </vehicle>
    <vehicle id="veh17" type="veh_passenger" depart="219.08" departLane="best">
        <route edges="-29084716#2 -46191510#1 -11627689 23918286#0 23918286#2 23918356 -29408065#3 -29408065#2 -26626390 -440803438"/>
    </vehicle>
    <vehicle id="veh18" type="veh_passenger" depart="231.97" departLane="best">
        <route edges="-15021019#0 -328178779 -549336714 915205870#0 -391923088 -34569965 -115597416#1 -115597416#0 -391923087 -31540126"/>
    </vehicle>
    <vehicle id="veh19" type="veh_passenger" depart="244.86" departLane="best">
        <route edges="-155467734 -297225622 -915457925#0 -697574936#1 -46191510#1 -11627689 -393505712#1 -23918493 -23918490#1 -23918490#0 -143183287 61383017#0 61383017#1 -390709999 -46191489#1 -345607727 -391923088"/>
    </vehicle>
    <vehicle id="veh20" type="veh_passenger" depart="257.74" departLane="best">
        <route edges="23918356 23918359 -23918359 -23918356 -23918286#2 -23918286#1 -23918281#0 27496690#0 27496690#1 -83687789"/>
    </vehicle>
    <vehicle id="veh21" type="veh_passenger" depart="270.63" departLane="best">
        <route edges="-681503599 -29317738#4 -29317738#3 -29317738#2 -24694092#1 46191489#0 390709999 143183286 186198379 12273115 143183287 391921422 23918490#1 23918493 393505712#0 96311855#1 186632793#0 186632793#2 186632793#3 186632793#4 186522910 24218438#1 30182237 -30182236 30185071 24219313 -24219312 -30185071"/>
    </vehicle>
    <vehicle id="veh22" type="veh_passenger" depart="283.52" departLane="best">
        <route edges="-317130966 317130966 27107042 -118607900 -194163682 -390705309#1 -390705309#0 -411014865 24218438#1 30182237 -30182236 72147000#1"/>
    </vehicle>
    <vehicle id="veh23" type="veh_passenger" depart="296.41" departLane="best">
        <route edges="24218438#1 -24218438#1 -23389835#0 -186632793#4 -186632793#3 -186632793#2 -186632793#0 -96311855#2 23918286#0 23918286#2"/>
    </vehicle>
    <vehicle id="veh24" type="veh_passenger" depart="309.29" departLane="best">
        <route edges="-23918286#1 96311855#1 186632793#0 186632793#2 186632793#3 186632793#4 186522910 24218438#1 30182237 -30182236 30185071"/>
    </vehicle>
    <vehicle id="veh25" type="veh_passenger" depart="322.18" departLane="best" departSpeed="max">
        <route edges="-23903578 -369711987 -312590965 -118607900 -194163682 -390705309#1 -390705309#0 -411014865 -23389835#0 -186632793#4 -186632793#3 -186632793#2 -186632793#0 -96311855#2 -393505712#1 -23918493 -23918490#1 -23918490#0 -143183287 61383017#0 61383017#1 -390709999 -46191489#1 -345607727 -391923088 -34569965 -35046089#1 -35046089#0 -46191496#3 -46191496#0 -13215492#2 -13215492#1 -13215492#0 -96306832#0"/>
    </vehicle>
    <vehicle id="veh26" type="veh_passenger" depart="335.07" departLane="best">
        <route edges="95771430 440803438 26626390 29408065#2 29408065#3 -23918356 -23918286#2 -23918286#1 -393505712#1 -23918493 -23918490#1 -23918490#0 -143183287 -12273115 -118607895 -392719989 -80152409 -681503599 -29317738#4 -29317738#3 -29317738#2 -29317738#1 -29317738#0 24693823#0 24693823#1"/>
    </vehicle>
    <vehicle id="veh27" type="veh_passenger" depart="347.95" departLane="best">
        <route edges="17384248 -17384248 -23918359 -23918356 -23918286#2 -23918286#1 -393505712#1 -23918493 -23918490#1 -23918490#0 -143183287 -12273115 -143183283#0 -284588825 -15021030 15021030 284588825"/>
    </vehicle>
    <vehicle id="veh29" type="veh_passenger" depart="373.73" departLane="best">
        <route edges="-29317738#0 24693823#0 24693823#1 32252194 391923088 345607727 46191489#0 390709999 143183286 186198379 12273115 143183287 391921422 23918490#1 23918493 393505712#0 23918286#0 23918286#2 23918356 23918359 486972235#0 486972235#1 -11818113#3 -11818113#2"/>
    </vehicle>
    <vehicle id="veh30" type="veh_passenger" depart="386.62" departLane="best" departSpeed="max">
        <route edges="-42992977#1 -23389835#0 -186632793#4 -186632793#3 -186632793#2 -186632793#0 -96311855#2 -23918281#0 46191510#0 29084716#1 155542968 155542976 -155542976 -369855809"/>
    </vehicle>
    <vehicle id="veh34" type="veh_passenger" depart="438.16" departLane="best">
        <route edges="-312590965 -118607900 -194163682 -390705309#1 -390705309#0 -411014865 -23389835#0 -186632793#4 -186632793#3 -186632793#2 -186632793#0 -96311855#2 -393505712#1 -23918493 -23918490#1 -23918490#0 -143183287 61383017#0 61383017#1 -390709999 -46191489#1 -345607727 -391923088 -34569965 -115597416#1 -115597416#0 -391923087 -31540126"/>
    </vehicle>
    <vehicle id="veh37" type="veh_passenger" depart="476.83" departLane="best">
        <route edges="96311855#1 186632793#0 186632793#2 186632793#3 186632793#4 186522910 23918214 390705309#0 390705309#1 -27496690#1 -27496690#0 46191510#0 29084716#1 155542968 155542976"/>
    </vehicle>
    <vehicle id="veh38" type="veh_passenger" depart="489.71" departLane="best" departSpeed="max">
        <route edges="-15021019#3 -15021019#2 -15021019#1 -15021019#0 -328178779 -549336714 915205870#0 345607727 46191489#0 390709999 143183286 186198379 12273115 143183287 391921422 23918490#1 23918493 393505712#0 -23918281#0 46191510#0 -124977959#4 -124977959#2 -124977959#1 -124977959#0"/>
    </vehicle>
    <vehicle id="veh40" type="veh_passenger" depart="515.49" departLane="best">
        <route edges="-124977959#4 -124977959#2 -124977959#1 -124977959#0 -155467732#0 -155467734 -297225622 -915457925#0 -697574936#1 -46191510#1 -11627689 -393505712#1 -23918493 -23918490#1 -23918490#0 -143183287 61383017#0 61383017#1 -390709999 -46191489#1 -345607727 -391923088 -34569965 -35046089#1 -35046089#0 -46191496#3 -46191496#0 -13215492#2 -13215492#1 -13215492#0 96306832#1 96306832#2 -96306832#2 -96306832#1"/>
    </vehicle>
    <vehicle id="veh41" type="veh_passenger" depart="528.37" departLane="best">
        <route edges="96306840#1 -96306832#0 -96306840#0 -328178779 -549336714 915205870#0 345607727 46191489#0 390709999 143183286 186198379 12273115 143183287 391921422 23918490#1 23918493 393505712#0 23918286#0 23918286#2 23918356 -29408065#3 -29408065#2 -29408065#1 -29408065#0 -29408064 -155364235 -16893609 17384249#0 17384256"/>
    </vehicle>
    <vehicle id="veh45" type="veh_passenger" depart="579.92" departLane="best">
        <route edges="-317130966 317130966 27107042 -118607900 -194163682 -390705309#1 -390705309#0 -411014865 -23389835#0 -186632793#4 -186632793#3 -186632793#2 -186632793#0 -96311855#2 -393505712#1 -23918493 -23918490#1 -23918490#0 -143183287 -12273115 -118607895 -392719989 -80152409 -681503599 -29317738#4 -29317738#3 -29317738#2 -29317738#1 -29317738#0 24693823#0 24693823#1"/>
    </vehicle>
    <vehicle id="veh46" type="veh_passenger" depart="592.81" departLane="best" departSpeed="max">
        <route edges="-155542976 -369855809 -29084716#2 -46191510#1 -11627689 23918286#0 23918286#2 23918356 23918359 486972235#0 486972235#1 11818113#0 11818113#1 11818113#2"/>
    </vehicle>
    <vehicle id="veh48" type="veh_passenger" depart="618.59" departLane="best">
        <route edges="486972235#1 -486972235#1 -486972235#0 -23918359 -23918356 -23918286#2 -23918286#1 -393505712#1 -23918493 -23918490#1 -23918490#0 -143183287 61383017#0 61383017#1 -390709999 -46191489#1 -345607727 -391923088 -34569965 -35046089#1 -35046089#0"/>
    </vehicle>
    <vehicle id="veh50" type="veh_passenger" depart="644.36" departLane="best">
        <route edges="-392719989 -80152409 -681503599 -29317738#4 -29317738#3 -29317738#2 -29317738#1 -29317738#0 24693823#0"/>
    </vehicle>
    <vehicle id="veh53" type="veh_passenger" depart="683.02" departLane="best" departSpeed="max">
        <route edges="314492923 -194163682 -27496690#1 -27496690#0 -11627689 23918286#0 23918286#2 23918356 -29408065#3 -29408065#2 -29408065#1 -29408065#0 -29408064 -155364235 -16893609 17384249#0 17384256"/>
    </vehicle>
    <vehicle id="veh56" type="veh_passenger" depart="721.68" departLane="best">
        <route edges="549336711 -549336712 345607727 46191489#0 390709999 143183286 186198379 12273115 143183287 391921422 23918490#1 23918493 393505712#0 96311855#1 186632793#0 186632793#2 186632793#3 186632793#4 186522910 24218438#1 30182237 -30182236 30185071 24219313 420011938"/>
    </vehicle>
    <vehicle id="veh57" type="veh_passenger" depart="734.57" departLane="best" departSpeed="max">
        <route edges="-399282763 -29317738#2 -24694092#1 -345607727 -391923088 -34569965 -35046089#1 -35046089#0 -46191496#3 -46191496#0 -13215492#2"/>
    </vehicle>
    <vehicle id="veh58" type="veh_passenger" depart="747.46" departLane="best">
        <route edges="549336711 -549336712 345607727 46191489#0 390709999 143183286 186198379 12273115 143183287 391921422 23918490#1 23918493 770677246 770677245"/>
    </vehicle>
    <vehicle id="veh59" type="veh_passenger" depart="760.34" departLane="best">
        <route edges="-143183283#0 143183283#0 12273115 143183287 391921422 23918490#1 23918493 393505712#0 -23918281#0 -318209631#2 -318209631#1 -318209631#0 223107990 -223107990 318209631#0 318209631#1"/>
    </vehicle>
    <vehicle id="veh61" type="veh_passenger" depart="786.12" departLane="best">
        <route edges="115597416#1 32252194 391923088 345607727 46191489#0 390709999 143183286 186198379 12273115 143183287 391921422 23918490#1 23918493 393505712#0 23918286#0 23918286#2 23918356 -29408065#3 -29408065#2 -26626390 29408070 17457033#4"/>
    </vehicle>
    <vehicle id="veh62" type="veh_passenger" depart="799.01" departLane="best">
        <route edges="-312590965 -118607900 -194163682 -390705309#1 -390705309#0 -411014865 -23389835#0 -186632793#4 -186632793#3 -186632793#2 -186632793#0 -96311855#2 -393505712#1 -23918493 -23918490#1 -23918490#0 -143183287 -12273115 -118607895 -392719989 -80152409 -681503599 -29317738#4 -29317738#3 -29317738#2 -29317738#1 -102809770#0 549336711"/>
    </vehicle>
    <vehicle id="veh63" type="veh_passenger" depart="811.89" departLane="best">
        <route edges="96306840#1 -96306832#0 -96306840#0 -328178779 -549336714 915205870#0 345607727 -24702000#1 -24702000#0 24702000#0"/>
    </vehicle>
    <vehicle id="veh65" type="veh_passenger" depart="837.67" departLane="best">
        <route edges="-16893609 16893609 155364235 29408064 29408065#0 29408065#1 29408065#2 29408065#3 -23918356 -23918286#2 -23918286#1 -23918281#0 27496690#0 27496690#1 83687773 -314492923"/>
    </vehicle>
    <vehicle id="veh66" type="veh_passenger" depart="850.55" departLane="best">
        <route edges="-46191510#1 -11627689 -393505712#1 -23918493 -23918490#1 -23918490#0 -143183287 61383017#0 61383017#1 -390709999 -46191489#1 -345607727 915205869#1 549336714 328178779 15021023 19355403#0 19355403#1 19355403#2 19355403#3 19355403#4 19355403#5 19355403#6"/>
    </vehicle>
    <vehicle id="veh67" type="veh_passenger" depart="863.44" departLane="best">
        <route edges="-29317738#1 -102809770#0 549336711 -549336712 915205869#1 549336714 15021006 770677236#0 770677236#1 770677236#3 770677236#4 307076768#1 307076768#2 118607894 -118607894 -307076768#2 -307076768#1"/>
    </vehicle>
    <vehicle id="veh68" type="veh_passenger" depart="876.33" departLane="best">
        <route edges="-143183286 -390709999 -46191489#1 46191489#0 390709999 143183286 186198379 12273115 143183287 391921422 23918490#1 23918493 393505712#0 96311855#1 186632793#0 186632793#2 186632793#3 186632793#4 186522910 24218438#1 24219491#0 24219491#1 24219491#2"/>
    </vehicle>
    <vehicle id="veh69" type="veh_passenger" depart="889.22" departLane="best">
        <route edges="393505712#0 23918286#0 23918286#2 23918356 23918359 -23918359 -23918356 -23918286#2 -23918286#1 -393505712#1 -23918493 -23918490#1 -23918490#0 -143183287 61383017#0 61383017#1 -390709999 -46191489#1 -345607727 915205869#1 549336714 328178779 15021019#0 15021019#1 15021019#2 15021019#3 -15021019#3 -15021019#2 -15021019#1"/>
    </vehicle>
    <vehicle id="veh70" type="veh_passenger" depart="902.10" departLane="best" departSpeed="max">
        <route edges="80152409 392719989 118607895 12273115 143183287 391921422 23918490#1 23918493 393505712#0 96311855#1 186632793#0 186632793#2 186632793#3"/>
    </vehicle>
    <vehicle id="veh71" type="veh_passenger" depart="914.99" departLane="best">
        <route edges="115597416#0 115597416#1 -35046089#1 -35046089#0 -46191496#3 -46191496#0 -13215492#2 -13215492#1 -13215492#0 24221021 24716580#0 24716580#1 24716580#2 378330769#0 378330769#2"/>
    </vehicle>
    <vehicle id="veh72" type="veh_passenger" depart="927.88" departLane="best">
        <route edges="-155364235 155364235 29408064 29408065#0 29408065#1 29408065#2 29408065#3 23918359 486972235#0 486972235#1 11818113#0"/>
    </vehicle>
    <vehicle id="veh74" type="veh_passenger" depart="953.65" departLane="best">
        <route edges="915457925#0 915457925#1 -297225622 -915457925#0 -697574936#1 -46191510#1 -11627689 -393505712#1 -23918493 -23918490#1 -23918490#0 -143183287 -12273115 -186198379"/>
    </vehicle>
    <vehicle id="veh75" type="veh_passenger" depart="966.54" departLane="best">
        <route edges="-770677246 -23918493 -23918490#1 -23918490#0 -143183287 61383017#0 61383017#1 -390709999 -46191489#1 -345607727 915205869#1 549336714 15021006 770677236#0 770677236#1 770677236#3 770677236#4 -770677236#4 -770677236#3 -770677236#1 -770677236#0"/>
    </vehicle>
    <vehicle id="veh76" type="veh_passenger" depart="979.43" departLane="best">
        <route edges="393505712#0 23918286#0 23918286#2 23918356 23918359 -23918359 -23918356 -23918286#2 -23918286#1 -393505712#1 -23918493 -23918490#1 -23918490#0 -143183287 61383017#0 61383017#1 -390709999 -46191489#1 -345607727 -391923088 -34569965 -115597416#1 -115597416#0 -391923087 -31540126"/>
    </vehicle>
    <vehicle id="veh77" type="veh_passenger" depart="992.31" departLane="best">
        <route edges="-915457925#0 -697574936#1 -46191510#1 -11627689 -393505712#1 -23918493 -23918490#1 -23918490#0 -143183287 61383017#0 61383017#1 -390709999 -46191489#1 -345607727 -391923088"/>
    </vehicle>
    <vehicle id="veh79" type="veh_passenger" depart="1018.09" departLane="best">
        <route edges="-96306841 -155467734 -297225622 -915457925#0 -697574936#1 -46191510#1 -11627689 -393505712#1 -23918493 -23918490#1 -23918490#0 -143183287 61383017#0 61383017#1 -390709999 -46191489#1 46191489#0"/>
    </vehicle>
    <vehicle id="veh80" type="veh_passenger" depart="1030.98" departLane="best">
        <route edges="155364235 29408064 29408065#0 29408065#1 29408065#2 29408065#3 -23918356 -23918286#2 -23918286#1 -23918281#0 46191510#0 -124977959#4 -124977959#2"/>
    </vehicle>
    <vehicle id="veh81" type="veh_passenger" depart="1043.86" departLane="best">
        <route edges="96311855#1 186632793#0 186632793#2 186632793#3 186632793#4 186522910 24218438#1 30182237 -30182236 30185071 24219313 420011938"/>
    </vehicle>
    <vehicle id="veh82" type="veh_passenger" depart="1056.75" departLane="best" departSpeed="max">
        <route edges="899238845 28218886#0 28218886#1 17454323#0 17454323#1 35470096#0 35470096#1 35470096#2 1012086133 83687778 96306833 718174275#0 718174275#1 718174275#2 718174275#3 718174275#4"/>
    </vehicle>
    <vehicle id="veh84" type="veh_passenger" depart="1082.52" departLane="best">
        <route edges="-770677245 -770677246 -23918493 -23918490#1 -23918490#0 -143183287 -12273115 -143183283#0"/>
    </vehicle>
    <vehicle id="veh86" type="veh_passenger" depart="1108.30" departLane="best">
        <route edges="-312590965 -118607900 -194163682 -390705309#1 -390705309#0 -411014865 -23389835#0 -186632793#4 -186632793#3 -186632793#2 -186632793#0 -96311855#2 -393505712#1 -23918493 -23918490#1 -23918490#0 -143183287 61383017#0 61383017#1 -390709999 -46191489#1 -345607727 -391923088 -34569965 -35046089#1 -35046089#0 -46191496#3 -46191496#0 -13215492#2 -13215492#1 -13215492#0 24221021 24716580#0 24716580#1 24716580#2 378330769#0"/>
    </vehicle>
    <vehicle id="veh88" type="veh_passenger" depart="1134.07" departLane="best">
        <route edges="84658163 24702000#0 24702000#1 -345607727 915205869#1 549336714 328178779 13215491 96306840#1"/>
    </vehicle>
    <vehicle id="veh89" type="veh_passenger" depart="1146.96" departLane="best">
        <route edges="17384248 -17384248 -23918359 -23918356 -23918286#2 -23918286#1 96311855#1 186632793#0 186632793#2 186632793#3 186632793#4 186522910 24218438#1 30182237 -30182236 30182236"/>
    </vehicle>
    <vehicle id="veh90" type="veh_passenger" depart="1159.85" departLane="best">
        <route edges="-194163682 -390705309#1 -390705309#0 -411014865 -23389835#0 -186632793#4 -186632793#3 -186632793#2 -186632793#0 -96311855#2 -393505712#1 -23918493 -23918490#1 -23918490#0 -143183287 61383017#0 61383017#1 -390709999 -46191489#1"/>
    </vehicle>
    <vehicle id="veh93" type="veh_passenger" depart="1198.51" departLane="best">
        <route edges="-124977959#0 -155467732#0 -155467734 -297225622 -915457925#0 -697574936#1 -46191510#1 -11627689 -393505712#1 -23918493 -23918490#1 -23918490#0 -143183287 61383017#0 61383017#1 -390709999 -46191489#1 -345607727 915205869#1 549336714 328178779 15021023 19355403#0 19355403#1 19355403#2 19355403#3"/>
    </vehicle>
    <vehicle id="veh94" type="veh_passenger" depart="1211.40" departLane="best">
        <route edges="124977959#2 124977959#3 29084716#1 155542968 155542976 -155542976 -369855809 -29084716#2 -46191510#1 -11627689 96311855#1 186632793#0 186632793#2 186632793#3 186632793#4 186522910 42992977#1"/>
    </vehicle>
    <vehicle id="veh96" type="veh_passenger" depart="1237.17" departLane="best">
        <route edges="-15021019#0 -328178779 -549336714 915205870#0 345607727 46191489#0 390709999 143183286 186198379 12273115 143183287 391921422 23918490#1 23918493 393505712#0 -23918281#0 46191510#0 29084716#1 155542968 155542976 -155542976 -369855809 -29084716#2"/>
    </vehicle>
    <vehicle id="veh97" type="veh_passenger" depart="1250.06" departLane="best">
        <route edges="186632793#0 186632793#2 186632793#3 186632793#4 186522910 23918214 390705309#0 390705309#1 83687773 118607900 -64595865 -317130966 317130966 27107042"/>
    </vehicle>
    <vehicle id="veh98" type="veh_passenger" depart="1262.94" departLane="best">
        <route edges="-29317738#3 -29317738#2 -24694092#1 46191489#0 390709999 143183286 186198379 12273115 143183287 391921422 23918490#1 23918493 393505712#0 96311855#1 186632793#0 186632793#2 186632793#3 186632793#4 186522910 24218438#1 -24218438#1 -23389835#0"/>
    </vehicle>
    <vehicle id="veh100" type="veh_passenger" depart="1288.72" departLane="best">
        <route edges="186522910 24218438#1 -24218438#1 -23389835#0 -186632793#4 -186632793#3 -186632793#2 -186632793#0 -96311855#2 -393505712#1 -23918493 -23918490#1 -23918490#0 -143183287 143183287 391921422 23918490#1 23918493"/>
    </vehicle>
    <vehicle id="veh101" type="veh_passenger" depart="1301.61" departLane="best">
        <route edges="-80152409 80152409 392719989 118607895 -186198379 -143183286 -390709999 -46191489#1 -345607727 915205869#1 549336714 328178779 15021023 19355403#0 19355403#1 19355403#2 19355403#3"/>
    </vehicle>
    <vehicle id="veh103" type="veh_passenger" depart="1327.38" departLane="best">
        <route edges="-24702000#0 24702000#0 24702000#1 -345607727 915205869#1 549336714 -549336714 915205870#0 345607727 46191489#0 390709999 143183286 186198379 12273115 143183287 391921422 23918490#1 23918493 393505712#0 96311855#1 186632793#0 186632793#2 186632793#3 186632793#4 186522910 24218438#1 24219491#0 24219491#1 30182079#0 30182079#1"/>
    </vehicle>
    <vehicle id="veh105" type="veh_passenger" depart="1353.15" departLane="best" departSpeed="max">
        <route edges="24694123 -29317738#2 -24694092#1 -345607727 -391923088 -34569965 -35046089#1 -35046089#0 -46191496#3 -46191496#0"/>
    </vehicle>
    <vehicle id="veh106" type="veh_passenger" depart="1366.04" departLane="best" departSpeed="max">
        <route edges="-42992977#1 -23389835#0 -186632793#4 -186632793#3 -186632793#2 -186632793#0 -96311855#2 -393505712#1 -23918493 -23918490#1 -23918490#0 -143183287 61383017#0 61383017#1 -390709999 -46191489#1 -345607727 915205869#1 549336714 15021006 770677236#0 770677236#1 770677236#3 770677236#4 307076768#1"/>
    </vehicle>
    <vehicle id="veh107" type="veh_passenger" depart="1378.93" departLane="best">
        <route edges="-143183286 -390709999 -46191489#1 46191489#0 390709999 143183286 186198379 12273115 143183287 391921422 23918490#1 23918493 393505712#0 -23918281#0 46191510#0 -124977959#4 -124977959#2 -124977959#1 124977959#1 124977959#2 124977959#3"/>
    </vehicle>
    <vehicle id="veh108" type="veh_passenger" depart="1391.82" departLane="best">
        <route edges="96311855#1 186632793#0 186632793#2 186632793#3 186632793#4 186522910 24218438#1 -24218438#1 -23389835#0 -186632793#4 -186632793#3 -186632793#2 -186632793#0 -96311855#2 -393505712#1 -23918493 -23918490#1 -23918490#0 -143183287 61383017#0 61383017#1 -390709999 -46191489#1 -345607727 915205869#1 549336714 328178779 13215491 96306840#1"/>
    </vehicle>
    <vehicle id="veh112" type="veh_passenger" depart="1443.37" departLane="best">
        <route edges="390709999 143183286 186198379 12273115 143183287 391921422 23918490#1 23918493 393505712#0 23918286#0 23918286#2 23918356 -29408065#3 -29408065#2 -29408065#1 -29408065#0 -29408064 29408064"/>
    </vehicle>
    <vehicle id="veh117" type="veh_passenger" depart="1507.80" departLane="best" departSpeed="max">
        <route edges="-155542976 -369855809 -29084716#2 -46191510#1 -11627689 -393505712#1 -23918493 -23918490#1 -23918490#0 -143183287 61383017#0 61383017#1 -390709999 -46191489#1 46191489#0 390709999 143183286 186198379"/>
    </vehicle>
    <vehicle id="veh118" type="veh_passenger" depart="1520.69" departLane="best">
        <route edges="-318209631#2 -318209631#1 -318209631#0 223107990 -223107990 318209631#0 318209631#1 318209631#2 27496690#0 27496690#1 83687773 118607900 38851173 369711987 23903578"/>
    </vehicle>
    <vehicle id="veh119" type="veh_passenger" depart="1533.58" departLane="best">
        <route edges="29084716#1 155542968 155542976 -155542976 -369855809 -29084716#2 -46191510#1 -11627689 23918286#0 23918286#2 23918356 -29408065#3"/>
    </vehicle>
    <vehicle id="veh120" type="veh_passenger" depart="1546.46" departLane="best">
        <route edges="23918286#2 23918356 23918359 -23918359 -23918356 -23918286#2 -23918286#1 -393505712#1 -23918493 -23918490#1 -23918490#0 -143183287 61383017#0 61383017#1 -390709999 -46191489#1 -345607727 -391923088 -34569965 -35046089#1"/>
    </vehicle>
    <vehicle id="veh121" type="veh_passenger" depart="1559.35" departLane="best">
        <route edges="391923088 345607727 46191489#0 390709999 143183286 186198379 12273115 143183287 391921422 23918490#1 23918493 393505712#0 23918286#0 23918286#2 23918356 -29408065#3 -29408065#2 -29408065#1 -29408065#0 -29408064 -155364235 -16893609"/>
    </vehicle>
    <vehicle id="veh123" type="veh_passenger" depart="1585.12" departLane="best">
        <route edges="23918356 23918359 -23918359 -23918356 -23918286#2 -23918286#1 -393505712#1 -23918493 -23918490#1 -23918490#0 -143183287 61383017#0 61383017#1 -390709999 -46191489#1 -345607727 -391923088 -34569965"/>
    </vehicle>
    <vehicle id="veh124" type="veh_passenger" depart="1598.01" departLane="best">
        <route edges="29408070 17457033#4 16893609 155364235 29408064 29408065#0 29408065#1 29408065#2 29408065#3 -23918356 -23918286#2 -23918286#1 -393505712#1 -23918493 -23918490#1 -23918490#0 -143183287 61383017#0 61383017#1 -390709999 -46191489#1 46191489#0 390709999 143183286 186198379"/>
    </vehicle>
    <vehicle id="veh126" type="veh_passenger" depart="1623.79" departLane="best">
        <route edges="390709999 143183286 186198379 -143183283#0 143183283#0 -186198379 -143183286 -390709999 -46191489#1 -345607727 915205869#1 549336714 328178779 15021023 19355403#0 19355403#1 19355403#2"/>
    </vehicle>
    <vehicle id="veh128" type="veh_passenger" depart="1649.56" departLane="best">
        <route edges="317130966 27107042 -118607900 -194163682 -390705309#1 -390705309#0 -411014865 -23389835#0 -186632793#4 -186632793#3 -186632793#2 -186632793#0 -96311855#2 -393505712#1 -23918493 -23918490#1 -23918490#0 -143183287 61383017#0 61383017#1 -390709999 -46191489#1 46191489#0"/>
    </vehicle>
    <vehicle id="veh130" type="veh_passenger" depart="1675.33" departLane="best">
        <route edges="-30182236 72147000#1 -24218438#1 -23389835#0 -186632793#4 -186632793#3 -186632793#2 -186632793#0"/>
    </vehicle>
    <vehicle id="veh131" type="veh_passenger" depart="1688.22" departLane="best" departSpeed="max">
        <route edges="314492923 -194163682 -390705309#1 -390705309#0 -411014865 -23389835#0 -186632793#4 -186632793#3 -186632793#2 -186632793#0 -96311855#2 -393505712#1 -23918493 -23918490#1 -23918490#0 -143183287 61383017#0 61383017#1"/>
    </vehicle>
    <vehicle id="veh133" type="veh_passenger" depart="1714.00" departLane="best">
        <route edges="46191489#0 390709999 143183286 186198379 12273115 143183287 391921422 23918490#1 23918493 393505712#0 -23918281#0 46191510#0 29084716#1 155542968 155542976 -155542976 -369855809 -29084716#2 697574936#0 915457925#0"/>
    </vehicle>
    <vehicle id="veh134" type="veh_passenger" depart="1726.88" departLane="best">